86
 SCF done       -156.412345966024          0.000420075416
C          -5.08743683042331    3.84752148693852    3.20641856158960
C          -4.10109125671572    3.51748213131300    4.09190108549761
C          -3.90814607748581    4.15424301427654    5.33811248863528
N          -3.70467846963582    4.63022641816019    6.36211318643812
C          -3.14585523299652    2.49320041430587    3.90595803028638
N          -2.33274221983685    1.68678631216032    3.83690887303737
C          -6.08262873311193    4.89491202156528    3.38624293265058
C          -6.97799074752797    4.88178480546553    2.28753098391452
C          -8.03026494844483    5.75899730453692    2.17795619262777
C          -8.20516020310987    6.70068680976869    3.19630715949501
C          -7.30565461379531    6.70797950920553    4.29087074084331
C          -6.24565018280753    5.81932304332146    4.40475460939059
S          -7.70759873323992    7.94894255343959    5.43913442078661
C          -9.05690280922112    8.43507526995428    4.44732172863404
C          -9.20221805283233    7.70694238901483    3.31453140613375
Br        -10.14810145284824    9.85423052800877    5.00300969072674
C          -6.60587828710761    3.79877928415441    1.35716689471674
O          -7.24442082463877    3.40552043382260    0.41218850355205
C          -5.33520224923682    3.22530951330610    1.90597259812068
C          -4.59887908935672    2.29641217100569    1.27365196738687
C          -4.88678131978982    1.87069701542914   -0.10068917865938
N          -5.01865361006978    0.56641011343253   -0.32034515409559
C          -5.31199775089451    0.20568010025217   -1.55977850013281
C          -5.47003129826236    1.12332050671034   -2.58264000296668
C          -5.26010467296955    2.47144020039679   -2.26127304063780
N          -4.95599686483917    2.82516503690858   -1.01265591809025
C          -5.38551444809760    3.51987146263236   -3.25368384225741
C          -5.11766013124790    4.80429601428145   -2.98778789427458
C          -5.29667860797743    5.87807910199628   -3.94958784371722
N          -5.83193104419529    5.58478268571350   -5.13794587304967
C          -6.03655280214625    6.59756688152840   -5.96328918863140
C          -5.72377887874575    7.90338521485668   -5.63438174011747
C          -5.13156570688883    8.11660297841361   -4.37852819226883
N          -4.92727586597095    7.08767243709215   -3.55104743437539
C          -4.73745732362495    9.43317684694972   -3.94690209608702
C          -3.96739720357593    9.63531596110112   -2.85618232677699
C          -3.57785568963833   10.91493439761036   -2.39176735832944
S          -2.43365442456744   11.09115052355833   -1.08344067164548
C          -2.50694875219318   12.83123799201407   -1.10098050509378
C          -1.73061545868480   13.65247596899295   -0.13347872674980
C          -2.37153303136714   13.62562129808397    1.25597026433882
C          -3.38324121234715   13.23540996589709   -2.05855536229404
C          -3.99221816688354   12.17105964863062   -2.81124365648112
N          -4.86971372376091   12.56622550905217   -3.75076251054119
C          -5.00646535278007   13.85317611418968   -3.78711602571209
S          -3.98967831186039   14.76313539609805   -2.61188615152177
C          -5.88452876539047   14.57740909075014   -4.62104855647724
C          -6.64412165098104   13.97060864617732   -5.57879907546831
C          -7.59842384778310   14.57204079901535   -6.41864723479131
C          -8.12312816453112   15.84100190631549   -6.36800764188851
C          -9.11882379420097   16.33429418577763   -7.25572525414413
C          -9.54976390194794   17.59321325493452   -6.98529453776946
C          -8.92101146231376   18.18435988858424   -5.86169239859177
S          -7.74540638940263   17.07351095722313   -5.18079377042417
C          -9.14860420739475   19.42586000718920   -5.31863390754890
C         -10.07107851997647   20.41118259305764   -5.77465365414578
C         -10.09275978568301   21.53868026596648   -5.03189004435365
C          -9.18199986852166   21.53535203803239   -3.92205190827431
S          -8.29976674035449   19.99964620613060   -3.89935762958747
C          -8.98933050647766   22.50376525863752   -3.01699735385937
H          -8.69481765705936    5.72016893922666    1.32920423609076
H          -5.58963504744116    5.86572174480778    5.25782400042605
H          -9.97997851889520    7.87068892725850    2.59117829488201
H          -3.74679730966134    1.82370216145064    1.74152931133116
H          -5.42582096288417   -0.85880291794253   -1.72153504718279
H          -5.73113322148086    0.82050405006095   -3.58344526426650
H          -5.72847820697501    3.23258739312427   -4.23726647825027
H          -4.76380013127298    5.09879040425243   -2.01116704175862
H          -6.47412718115389    6.34142042765536   -6.92098001199446
H          -5.90845606931852    8.72237714316526   -6.31046381312218
H          -5.06905720493449   10.27374728731153   -4.53810730930600
H          -3.61387386288300    8.77714408378352   -2.30137891579105
H          -1.69509625630102   14.67982919785472   -0.50336096997029
H          -0.70926755670485   13.27061240277238   -0.06613370719853
H          -3.38413633944091   14.02000336322653    1.21267700493539
H          -1.79133647345810   14.23113721640594    1.94709836272091
H          -2.41087649863443   12.60596153931959    1.63241473237464
H          -5.91581950060186   15.64416626515315   -4.46341525687924
H          -6.49343601063181   12.90746637484992   -5.71066335125631
H          -8.01103202799282   13.94112499836202   -7.19643816075159
H          -9.48708286620778   15.72844754351532   -8.06515082589180
H         -10.30327148973293   18.10961767484824   -7.55229753416970
H         -10.68677452454205   20.24240112157647   -6.64018808244137
H         -10.72387090571420   22.38899219632238   -5.22019980266341
H          -9.54904703350810   23.42106174691886   -3.06676859337621
H          -8.27790686968989   22.39844883133496   -2.21859593332623
