119
 SCF done       -216.408711798343          0.000843734859
C          -7.74713748686285   -1.16567284788312   -4.11661028691607
C          -6.80824694841931   -2.13413247344546   -3.87382910107822
C          -6.77206490453227   -3.37658900328749   -4.54069082995931
N          -6.69744892758157   -4.40292857807392   -5.04966935185228
C          -5.72280935966913   -2.01887679155339   -2.97815203991080
N          -4.79667178428114   -1.99762568526139   -2.30041631905150
C          -8.80135327539203   -1.24057416630208   -5.12134920809782
C          -9.45744991585669    0.01408043202795   -5.18595845774348
C         -10.49876065438628    0.26620670014124   -6.04594592663555
C         -10.92233450386134   -0.77538432778528   -6.87776578671666
C         -10.26662875184025   -2.02772259275305   -6.80285325660532
C          -9.20777742834358   -2.27912485924243   -5.93830749373885
S         -10.95518871562749   -3.17593940970266   -7.90928037785887
C         -12.09859179262555   -1.97548132182945   -8.45052510225099
C         -11.97280520106152   -0.77536224704172   -7.83568920962208
Br        -13.35332459698692   -2.42096956392901   -9.77086638787637
C          -8.84673914786585    0.92942509930495   -4.20920977079324
O          -9.12376896572330    2.10428880148556   -4.05035145026443
C          -7.84685569584968    0.13583042266844   -3.47704977778180
C          -7.23033834613755    0.49007995847350   -2.30859104956332
C          -7.30883909374892    1.70116182615967   -1.58510443594439
S          -7.97894124737862    3.19241553370526   -2.18255797693553
C          -7.52524536204206    4.05241886229718   -0.75121028068436
C          -6.86594694796275    3.22060927617145    0.14987783092976
C          -6.78214149515020    1.89336771071110   -0.30257727167225
C          -6.27882832311389    0.75852445033785    0.54465054618640
F          -6.99031939615595   -0.37071883832816    0.34731810080431
F          -4.99920857096152    0.44563645827756    0.30670225006748
F          -6.39394138994219    1.00690527133738    1.85440604909082
C          -6.15935755970322    3.73179634736532    1.37143067584921
F          -5.78563510733099    5.01661299270067    1.23619860713901
F          -6.90529261509795    3.67965414381471    2.49018107143028
F          -5.02635370796230    3.06622354727497    1.62333187005851
C          -7.94762496071795    5.41102139067211   -0.61739413491534
C          -8.32121201442266    5.98366030692656    0.54498242008597
C          -8.82512779898330    7.32364986844347    0.70630960485830
C          -9.55817494242373    7.61916956889285    1.86740541435227
C         -10.08726595579653    8.87264694540131    2.03707778187677
C          -9.86201768501382    9.87941270250733    1.08056215827160
C          -9.11189839215622    9.60698749296912   -0.05759433837718
C          -8.61226213604488    8.33476611022969   -0.24148482829033
C         -10.55013662180598   11.07583778933883    1.50525018973651
C         -11.23049482181341   10.79950816950876    2.70787736828317
C         -10.90531252141101    9.40574047559865    3.19277118362951
C         -12.16022393835687    8.56332944670467    3.45877000975817
C         -13.03606426946743    8.42230876522932    2.21893827439632
C          -9.96885541057025    9.44333387539261    4.42498012560997
C         -10.53057078026855   10.12719686616416    5.66423542074640
C         -12.06816785083558   11.73224229294051    3.26305455147402
C         -12.19343895304676   13.00096280287682    2.66888623827499
C         -11.43876607703648   13.28763390288549    1.51940446932724
C         -10.64489264685477   12.33306965166911    0.92072338081820
C         -13.06742957592425   14.00245572275416    3.21285308363685
C         -14.12351015046179   13.75079871764908    4.03123811123596
C         -14.96209511872633   14.73508803516635    4.58208539259552
C         -16.09047361645668   14.44758931298027    5.31046639233955
C         -16.96221135287070   15.35807198031248    5.95295844028717
C         -18.01581789962076   14.77267208550678    6.59082014920244
C         -18.04914594728312   13.36753955462703    6.47159473125622
S         -16.67316851005502   12.80564665820487    5.54952319325954
C         -19.00820488079453   12.49088046924354    6.94820641081391
C         -20.14294549688887   12.78365809598484    7.73428510158822
C         -20.91285542334694   11.69514790829368    8.01445685550891
C         -20.44434868936362   10.48012608756177    7.45540935605282
S         -18.95104222242642   10.78258769557287    6.58136369402133
C         -21.07244725918404    9.26417063014256    7.55532941052033
C         -20.70656465303217    8.03450733629324    6.97143322752643
C         -21.50689999811595    6.84385061928133    7.11992277985495
C         -20.92583903221683    5.81829626881078    6.40857814757886
C         -21.31532336482950    4.47227780663844    6.21333998472506
C         -20.52397085664779    3.69217430748047    5.41892274718694
C         -20.63243056202406    2.32371821934250    5.01097966803068
C         -19.56762253452902    2.01787183291485    4.18759099245365
C         -18.75425884290721    3.19218785602907    4.05779475529271
C         -19.31887946239056    4.21757918585951    4.79692487306264
C         -18.92465581276337    5.55288813487231    4.99440486284323
C         -19.72043665040120    6.34501937699609    5.78912322316631
C         -19.61680570989536    7.70969150195289    6.16186094910445
C         -19.33489958846746    0.73419690820938    3.57119434793035
C         -18.31753403884799    0.43354956606569    2.76835556558883
H         -10.97411641620447    1.23414006105371   -6.07281715462479
H          -8.74382388638723   -3.25087831079193   -5.91807749831336
H         -12.59478760247354    0.07532393619938   -8.04651872910717
H          -6.60799095431438   -0.26785562714042   -1.85219881672360
H          -8.07378420420803    5.94089598483160   -1.55100205632115
H          -8.31276615736101    5.38960953531950    1.44906072684073
H          -9.71775695983800    6.84368723942045    2.60262810220733
H          -8.92739783126328   10.37779129743759   -0.79087311640101
H          -8.02452706960801    8.11799039407735   -1.12002611211437
H         -12.74317375242379    9.03013962043772    4.25359086274484
H         -11.85437867822183    7.57356640894054    3.80407325107591
H         -13.35721773241280    9.39950856582532    1.86457980530684
H         -13.92028032059494    7.83240231105706    2.44934900893824
H         -12.49204849953737    7.92914641225301    1.41628267538964
H          -9.04912004679268    9.95536913027003    4.12973517061420
H          -9.70594541232962    8.41265874712323    4.67296452853088
H         -10.71950201183538   11.18048901273488    5.47496197338659
H          -9.80609423683534   10.05439427431694    6.47254468696786
H         -11.45188142911496    9.65590740116596    5.99597191738216
H         -12.62297849325540   11.50864418836363    4.16020000782188
H         -11.51927395000611   14.27082855928657    1.07789442809709
H         -10.10709564109811   12.55870273654592    0.01188994326197
H         -12.88248710615264   15.02416937999181    2.90482602247880
H         -14.37604977201270   12.72651105558603    4.27416860386304
H         -14.71130271257039   15.77711523252484    4.43399876892177
H         -16.78086277166886   16.41819467918902    5.92666832694270
H         -18.77328013539955   15.31456176068479    7.12844334760722
H         -20.35861943232551   13.78093190885020    8.07334194381534
H         -21.81549565198292   11.72628763531733    8.59943297691183
H         -21.98479941962117    9.25711611729367    8.14010865853146
H         -22.41466535753523    6.79063708780847    7.69468407931375
H         -22.21350059782491    4.09086623915170    6.67877273110345
H         -21.42133729646330    1.65507112136001    5.30355401123528
H         -17.85235311764217    3.26031254825038    3.47777013297070
H         -18.02843215685596    5.93731164464604    4.52866451617898
H         -18.82505641792146    8.36550599187876    5.85563507669089
H         -20.07424398999980   -0.02242914135021    3.80354463245980
H         -17.55918081430926    1.15136574705956    2.50673316549279
H         -18.20913971626159   -0.54826631384193    2.34125181169917
