86
 SCF done       -184.060791823147          0.000331295794
C         -16.41523122731354  -11.69737219550079   -1.63873459600099
C         -15.04593207478799  -11.57604657508716   -1.72911728460026
C         -14.20166713612084  -12.56918100336153   -2.26555045633308
N         -13.45445785044769  -13.33212436033913   -2.68874926654080
C         -14.27100387263214  -10.47548037794411   -1.31400904787217
N         -13.54290447370927   -9.63820389714811   -1.00957990066596
C         -17.18832896602380  -12.85955263338074   -2.07210707478202
C         -18.56081242118045  -12.61303739517259   -1.81953350571794
C         -19.54377547664351  -13.52501427929295   -2.11329454817476
C         -19.15592544155279  -14.74246579228341   -2.68462727527544
C         -17.78407572984693  -14.97967684782632   -2.93417406776862
C         -16.78897693998634  -14.05543492431431   -2.63691130699094
S         -17.52417553677659  -16.54521265444904   -3.64158298276498
C         -19.23915406518951  -16.85574111455682   -3.59263409663778
C         -19.97039811271546  -15.84061145416574   -3.07404972875957
Br        -19.90210760679703  -18.49065435304380   -4.22958300616609
C         -18.71153224209091  -11.27356293163580   -1.21351766485939
O         -19.75085988413261  -10.74384318548974   -0.87415500486349
C         -17.34184634921695  -10.73124960067322   -1.11002010243623
C         -17.01901732268331   -9.50042131385246   -0.57741353066044
C         -17.91151565300791   -8.56971953878602   -0.05729218271732
C         -17.46590719907314   -7.37242145207716    0.47991799892083
C         -18.22280559533396   -6.33193259981893    1.05673930521481
C         -17.46936670160658   -5.28314244001154    1.51601899596322
C         -16.08891567837370   -5.45582443838921    1.31793177657848
S         -15.76377088833057   -6.97524662706690    0.52997840330644
C         -15.01187658669092   -4.63901701585913    1.65484881393318
C         -14.98066599260549   -3.39244152837662    2.30277742482935
C         -13.70915862791972   -2.91846332865806    2.47020697641370
C         -12.69118680663116   -3.76364452706391    1.96379201764168
S         -13.40626483774927   -5.18550068964617    1.25421926102082
C         -11.34450553733792   -3.46381356419793    2.06292394100367
C         -10.20359650006347   -4.15572182316983    1.64442727052906
C          -8.92012335957828   -3.58707046017959    1.93481049082002
C          -7.69719714359204   -4.23289676524584    1.54857585295000
N          -6.52242969166529   -3.67047398295769    1.85534503920513
C          -6.49161259436872   -2.52931807907265    2.50262683086128
C          -7.70844463389452   -1.88419533567482    2.87619119388000
N          -8.87472849161573   -2.42429696920600    2.58779441599016
C          -7.68077649383540   -0.64798607495752    3.56703953423469
N          -7.63401295357974    0.35130562653798    4.12538865834032
C          -5.24035720420494   -1.94725196140216    2.82568424542005
N          -4.24919458845032   -1.44584232807589    3.10414017890347
C          -7.66314650227377   -5.46333529600090    0.84254665036421
C          -8.92807825103925   -6.03026523265519    0.54913023512545
C         -10.15971926729125   -5.39175289333826    0.94531390808799
N         -11.21274601939882   -6.10563767508285    0.56773398665126
S         -10.73811194701102   -7.43812278174967   -0.19897883083887
N          -9.15787443099958   -7.17487451804407   -0.09421829362721
C          -6.43339151152150   -6.05465897596644    0.47433663828116
S          -4.91189960133292   -5.32522564015127    0.89731512480369
C          -4.05101606233074   -6.62061778994457    0.10648610934795
C          -4.92123756977536   -7.55286738034806   -0.45254358888103
C          -6.24848655671574   -7.23787718924726   -0.24303693767397
C          -2.67779774357561   -6.65743120309993    0.07531580558808
C          -1.46004333948062   -6.67311336347445    0.06483902754422
C          -0.07595262560163   -6.72732606284232    0.02766824395228
C           0.59745884210745   -7.72346133335242   -0.72008473145512
C           2.03955140887336   -7.77718863673567   -0.75803371337984
N           2.65332613149277   -8.73734934281392   -1.48608088036930
C           1.91895332586979   -9.59422374438601   -2.14073526360313
C           0.48071805411453   -9.53610974574506   -2.09870248046013
N          -0.13648612996966   -8.61655359938739   -1.39922473158889
C          -0.28506408092793  -10.48264978778325   -2.82262697058084
N          -0.87462125918967  -11.26232065447324   -3.42032483681528
C           2.54968870467394  -10.60509813663059   -2.91251373545338
N           3.01863975781660  -11.43472207931014   -3.54725983673475
C           2.82312451570507   -6.86111289886286   -0.06287384013341
C           2.17288205999726   -5.87859896249828    0.67490101106754
C           0.72665825853159   -5.80315178727800    0.72415656897210
N           0.30524900774061   -4.79220852190968    1.48489407625405
S           1.57999668582184   -4.02148641870519    2.07170322270083
N           2.73521608003386   -4.90841619865446    1.40936874573721
H         -20.58039853957994  -13.30813318792772   -1.90824449225429
H         -15.75790347892628  -14.28584022474582   -2.84608111477263
H         -21.03971522071723  -15.86399987012478   -2.96930227142043
H         -15.97085350317217   -9.22673794055963   -0.55151410047712
H         -18.97045106490192   -8.78234055458780   -0.06242046153785
H         -19.29507420301001   -6.38462241212290    1.12035233814256
H         -17.87513586153214   -4.40540253977642    1.98660149830721
H         -15.86825554584904   -2.88047809683523    2.62903644278522
H         -13.47114146806798   -1.98379948142759    2.94720078801260
H         -11.12087106238513   -2.52780123301248    2.56289411513426
H          -4.57353868909564   -8.42055329602245   -0.98420560033356
H          -7.08065739651100   -7.82405768997489   -0.58677058766602
H           3.89718258901206   -6.92144283000739   -0.10440923236483
