125
 SCF done       -197.381883629281          0.000748061100
C           2.11456882396344    3.27703087561961   -3.48650932581859
C           3.33192796528720    3.65367059737477   -2.97901984689677
C           4.56552725356265    3.12630982900317   -3.41333368280803
N           5.60065903216305    2.74089881528033   -3.72760697826858
C           3.53377016115010    4.58926580820485   -1.94274470274688
N           3.79145807606911    5.32217150394412   -1.09649128271347
C           1.90367404348633    2.24612020086410   -4.49373744639020
C           0.51140297379391    2.05471396641835   -4.65880970325143
C          -0.01354015648077    1.14030498003663   -5.53898887338170
C           0.88056580204817    0.37436944187425   -6.29374538871814
C           2.27143092642930    0.57564269301911   -6.12679202691108
C           2.80157077371674    1.50149259325391   -5.23738800719258
S           3.19659479336922   -0.47033205695247   -7.16200987703306
C           1.72237739685771   -1.15513181846378   -7.79338812668234
C           0.59472202411965   -0.62968721149055   -7.25915203994886
Br          1.81130518404890   -2.49986647920237   -9.09822179761567
C          -0.22819754400095    2.97075055843093   -3.76545207379941
O          -1.43398806428576    3.06916645829023   -3.70059803820682
C           0.81203634436272    3.76732941824543   -3.06480336811340
C           0.61090425654050    4.89665469008721   -2.32843265720298
C          -0.61063805642369    5.41792131991676   -1.79008730904027
C          -0.71010175780196    6.81347261830028   -1.61922122495945
C          -1.86627467989410    7.35474448031297   -1.12310574774028
C          -2.93915005190525    6.52235980531626   -0.75103960637297
C          -2.83126011883121    5.14188737423584   -0.86251148660934
C          -1.67540272389557    4.60000487432183   -1.38140377590739
C          -4.00739754438537    7.35130591862912   -0.24785838111191
C          -3.60173160936745    8.69776708143232   -0.30217458286399
C          -2.22795175742388    8.81214501526415   -0.92418155606295
C          -1.23276853506414    9.53750277494017   -0.00680110404705
C          -1.07631637895435    8.84415399605903    1.34182688872960
C          -2.28349170305856    9.45552569624774   -2.33047833882732
C          -2.82734305681405   10.87662301844403   -2.39135892470485
C          -4.41852565261210    9.68259009456401    0.19819584092366
C          -5.68573227150712    9.35551689292626    0.70856795757404
C          -6.07942664209373    8.00989446033938    0.73015976729630
C          -5.24998072058791    7.01042779389214    0.26975432636500
C          -6.53227545106860   10.42595001962719    1.17943486234881
C          -7.83248766326661   10.32096480464873    1.51203985112865
C          -8.65788444781780   11.40837501116569    1.92947470544060
S          -7.96836603172294   13.00534180544625    2.10798891202822
C          -9.48592015559229   13.65851724849353    2.58249018043018
C          -9.60246392637831   15.11950391233097    2.85348323610854
C         -10.23040770421329   15.85765207524390    1.66793354673433
C         -10.49244897467186   12.71184703356955    2.56401802401703
C         -10.00656615758611   11.41077101280034    2.21124563856057
C         -10.82683891287910   10.15602958043379    2.26429953793781
C         -11.33023093628116    9.87928855807038    3.68172210081900
C         -11.85041563874731   13.09212857967396    2.86972676215534
C         -12.96974265077339   12.54319505021267    2.34319975094211
C         -14.28834192525831   12.94029166185307    2.64961900769132
C         -15.38699982089562   12.31620722014205    2.12030789975370
C         -16.75556024872008   12.61204068530481    2.33794683481728
C         -17.62060446048262   11.79337261692593    1.67644573217375
C         -16.99080217132565   10.79804148582601    0.89764848465378
S         -15.25136186297851   10.94103003925962    1.02818067444597
C         -17.56819259550708    9.81281644510968    0.12124435932585
C         -18.93885745279767    9.55480481946412   -0.10114374666916
C         -19.17233547991492    8.49711631488620   -0.92576428292393
C         -18.00486911825107    7.85060568812908   -1.40764978326075
S         -16.58711309401837    8.65908621233962   -0.75576209208192
C         -17.97861414900216    6.77088136393674   -2.25060548518439
C         -16.85517659205198    6.08709103045934   -2.76570078716847
C         -15.49335870757917    6.30548570153316   -2.54956069178213
C         -14.75633834676615    5.35399639562898   -3.30063339993029
C         -13.40236392819493    5.14748687901503   -3.43448574453079
C         -12.97990088986667    4.10533342143869   -4.27734683121108
C         -11.71706707775809    3.65171772935642   -4.62416178478010
C         -11.84353241000805    2.55280605150327   -5.53310036936103
C         -13.19035789600543    2.32620873998983   -5.74607555580572
C         -13.94138302457637    3.27421229046555   -4.98108956193188
C         -15.28872326840689    3.47375083980632   -4.84845788163234
C         -15.71673136756032    4.52141083691874   -4.00331593602201
C         -16.97713143599831    4.97370348252629   -3.66937489419169
C         -10.71143220339543    1.85226773788122   -6.09217323796563
C         -10.77589643395034    0.84015599911254   -6.95342310902193
H          -1.08071039980335    1.01912149200212   -5.64003599171431
H           3.86850153003897    1.62081287846461   -5.15093451693375
H          -0.39855044398937   -0.93530068389161   -7.53312037618174
H           1.47690746161872    5.52507863453715   -2.15187437795295
H           0.12211400786650    7.44045013394360   -1.90615497827367
H          -3.63929546511887    4.50001501685824   -0.54639355592546
H          -1.57370662314975    3.52989371677921   -1.44461441800295
H          -1.57777910790039   10.55915520347805    0.15704514073824
H          -0.26260478470219    9.58589745001028   -0.50560570652950
H          -2.03155059356577    8.79535549506054    1.86036562044368
H          -0.37338624625793    9.39178284381924    1.96521425878975
H          -0.70386772628404    7.83024253957994    1.21356049549054
H          -2.90266852151983    8.81708185915493   -2.96649062833487
H          -1.27047019704747    9.44355647371741   -2.73925319060694
H          -3.86999524096421   10.90643377800989   -2.08747126467580
H          -2.76408602406655   11.24121197978508   -3.41455173805857
H          -2.25362488263923   11.54919662539578   -1.75927878207682
H          -4.10389603671731   10.71566130566583    0.21008555741130
H          -7.04295697331514    7.74255705412315    1.13545015966435
H          -5.56058687087685    5.97718992257029    0.31453476151906
H          -6.06598791711728   11.40297263559433    1.22951356295833
H          -8.32325544748759    9.36190858881577    1.44010111019987
H          -8.60783502173692   15.52628346214131    3.04621606415486
H         -10.21316138930006   15.28294774861779    3.74571243974048
H          -9.61836657122374   15.72847912174548    0.77831306364994
H         -10.30801053643174   16.92010145432341    1.88509195521676
H         -11.22439635884570   15.46722613083398    1.46185964736586
H         -10.22400923373274    9.30897741234950    1.93841280989091
H         -11.67366839818863   10.22112463376492    1.58070646976404
H         -10.49016200817908    9.78455338944221    4.36675771108125
H         -11.89975272489789    8.95312036911571    3.69977124579774
H         -11.97085031853003   10.68518140553797    4.02927257784550
H         -11.96215614179876   13.93134136838249    3.54597447262610
H         -12.88738911668720   11.75044248895972    1.61475681614592
H         -14.44691384169385   13.76101258616317    3.33644087324402
H         -17.05534876486524   13.42318142044495    2.97832059741547
H         -18.69179586510753   11.87624703564714    1.72887567673057
H         -19.70979795937535   10.15411451158100    0.34950944959193
H         -20.15260221065654    8.15458044422245   -1.20880725335453
H         -18.94593107382170    6.39668149882946   -2.56483591104628
H         -15.05329497147849    7.05838182997974   -1.92477332882511
H         -12.68191533308075    5.76344567743858   -2.91507137526228
H         -10.78088038780855    4.05203177967370   -4.27602470228202
H         -13.62388865684851    1.57162101839713   -6.37553050798844
H         -16.01156113879937    2.85979240719944   -5.36818091893062
H         -17.91288252287992    4.57406907773530   -4.01955851902464
H          -9.74348515252992    2.20995614928457   -5.76146298840945
H         -11.71448189318824    0.45236773009331   -7.31094715210447
H          -9.88784809794077    0.36414844521796   -7.33163277984145
