117
 SCF done       -208.435046380112          0.000647962936
C          -6.61326958561611   -3.71660371103712   -9.05583398096695
C          -7.15522195243077   -4.76315422214787   -8.35618107694556
C          -6.47749370685370   -5.96995075588839   -8.08666884285508
N          -5.97123480967259   -6.96923957966268   -7.83493391676128
C          -8.46375069503901   -4.78404072580950   -7.82927821449345
N          -9.51402375744781   -4.87770322348663   -7.37456293805751
C          -5.28869180648762   -3.68923728798629   -9.66361957840905
C          -5.14861044303508   -2.48475213528671  -10.39540952538168
C          -4.00065068232257   -2.16161341339959  -11.07677309374061
C          -2.94150738669200   -3.07454731674213  -11.04212127976441
C          -3.08973366627288   -4.27522498441014  -10.30796592536734
C          -4.24878591411131   -4.59958843614989   -9.61367782046177
S          -1.65765536677839   -5.25668131955433  -10.39273495488997
C          -0.89229753076250   -4.05854922556121  -11.40235105932675
C          -1.66574622058333   -2.97807373126488  -11.66248912690186
Br          0.85650424070272   -4.34629740874859  -12.01701860032552
C          -6.37970290445652   -1.67880025751581  -10.26560041940332
O          -6.54613514084471   -0.55771879167782  -10.69533019341448
C          -7.28057027962203   -2.47355396514917   -9.39059593455915
C          -8.42787890310023   -1.98128419045895   -8.85319575643833
C          -9.08963678389444   -0.80839404332204   -9.34833714934590
C          -9.56309280546040    0.16870329938909   -8.48506970536826
C         -10.02518928617887    1.38650793642280   -8.95709072740980
C         -10.11971374052657    1.65910760342828  -10.31811501174787
C          -9.83759051473317    0.59669773597401  -11.23117353116279
N         -10.02792138909183    0.78236793316886  -12.54785732974113
C          -9.69071330054133   -0.18816494454965  -13.35735649926346
C          -9.18679809256201   -1.40840550864083  -12.87676867374349
N          -9.00023530904314   -1.62092073471343  -11.60103216766320
C          -9.28434560720550   -0.62119227355438  -10.74947078917185
C         -10.39345159101720    2.96667919668520  -10.82894970058866
C          -9.89959865613076    4.10926900652969  -10.27144063914020
C         -10.02235757316336    5.44253612552022  -10.75859371908812
C          -9.20784501741384    6.34406409262900  -10.14790280523982
C          -8.38085385455122    5.78006117427365   -9.14719927175571
S          -8.76807120227624    4.08634626228841   -8.92449452104125
C          -7.31846103403515    6.31927530311616   -8.45659507490683
C          -6.80142580456419    7.63624742368897   -8.43017283277776
C          -5.65881697137132    7.76082685088857   -7.70550942261176
C          -5.17650390271029    6.54759886719867   -7.12860603675694
S          -6.31633318849116    5.25938565588887   -7.49188238279013
C          -3.97731174447587    6.39701995301323   -6.49483970040924
C          -3.35225250735006    5.19590073085540   -6.02821764918772
C          -4.03227334861507    3.97178982740790   -5.89572316832727
C          -3.34062559177955    2.84058942830263   -5.55085360915330
C          -1.95668291514182    2.88667909646971   -5.30070098717300
C          -1.27800420943192    4.09821421127457   -5.37527409152058
C          -1.97581509677033    5.23149609414451   -5.73031204373667
C          -1.50472011268803    1.55272707347089   -4.98441360843533
C          -2.60761863187257    0.67871878472014   -5.04595063011361
C          -3.87132083236233    1.43782740738772   -5.37427501108639
C          -4.86876297792360    1.37395050361792   -4.19925072188668
C          -4.28021695510091    1.87571135499033   -2.88630824271341
C          -4.55782253227855    0.91494730875990   -6.64959443828281
C          -3.64320618271408    0.91429612953821   -7.86801257074877
C          -2.44751225338039   -0.66007761682082   -4.79898783994245
C          -1.17929343175752   -1.16342638295926   -4.45412673388190
C          -0.09317103331832   -0.27548255381987   -4.38800452700888
C          -0.24404066146654    1.06741633408449   -4.65687985785866
C          -1.05890447917987   -2.56448579765598   -4.16633734387548
C           0.00466698674619   -3.19228046291774   -3.60695137196962
C          -0.00467788701435   -4.57955992732059   -3.33443497802192
C           0.89447552624066   -5.29393529235627   -2.59871002379609
C           1.96951639173276   -4.88408403169820   -1.72340525582408
C           2.04105652000854   -3.72291278174603   -0.99598209438633
C           3.10088181788060   -3.41001859031846   -0.12043811677961
N           3.94790820690828   -3.09563907782986    0.58797049942813
C           1.02119226178099   -2.75013017845904   -0.93700225694536
N           0.21090336386706   -1.94808134609559   -0.80085132292518
C           2.85779247319341   -6.03230889173490   -1.56039224265068
C           2.23673832517557   -7.17208754596752   -2.13051028494138
C           0.95185031950583   -6.77155345663286   -2.74047485722877
O           0.13602659551390   -7.48180542816932   -3.28258829118436
C           2.80873467911123   -8.42009646947691   -2.09394004898807
C           4.05612417117344   -8.54881826915422   -1.47371956982721
C           4.67383510045293   -7.40266419643392   -0.91967876108189
C           4.09286640987261   -6.14073283542924   -0.95061122874377
S           6.21320970639273   -7.78603028180963   -0.21059243323755
C           6.00657573298859   -9.45878941121916   -0.65759266771435
C           4.84705706659554   -9.71870886210400   -1.30634253537378
Br          7.34225991242312  -10.70272359882790   -0.22585046161563
H          -3.92287458812248   -1.23394864399072  -11.62200893687786
H          -4.31074915501173   -5.52342209670848   -9.06293592486340
H          -1.35214394479361   -2.14637903510468  -12.26663097275581
H          -8.86397383666403   -2.45529482734367   -7.98285454339623
H          -9.48441232546754    0.00920366250554   -7.41936118375261
H         -10.32814574300774    2.14041381844272   -8.24638569860756
H          -9.84691459517175   -0.01567811517781  -14.41366789030632
H          -8.95746462970957   -2.22891955282296  -13.54364638331860
H         -10.89225531316136    3.02901528474281  -11.78546684401043
H         -10.69175474679938    5.67621528809788  -11.56754086830585
H          -9.14270133588545    7.38401821870681  -10.41541814511186
H          -7.28354170206812    8.44450908364160   -8.95087257778473
H          -5.11757795426055    8.68278044812279   -7.58286545895080
H          -3.38048549574779    7.29757632259861   -6.40946335432704
H          -5.09712262615421    3.91936720276362   -6.04671872034836
H          -0.22046473632934    4.15082676439624   -5.16425987424314
H          -1.45414388174197    6.17489130154447   -5.80623356656973
H          -5.19558632629786    0.33933051881336   -4.07624632925563
H          -5.74402351376565    1.97351810216048   -4.45771508966132
H          -3.42117020458709    1.27667296667116   -2.59270000422766
H          -5.02610163299203    1.81403232888869   -2.09748925646553
H          -3.96177542332156    2.91183472011513   -2.97742048230671
H          -5.42958959683502    1.53858029762452   -6.85760021490420
H          -4.91286499702851   -0.10154740045086   -6.46430759474721
H          -3.27977773729786    1.91867099888538   -8.07329000601609
H          -4.18981073484225    0.56199147555147   -8.74019013495630
H          -2.78567910998836    0.26315523479359   -7.70901704320743
H          -3.28938637159776   -1.33620346481981   -4.84688479186411
H           0.88387383099513   -0.65147351235818   -4.12905256757150
H           0.60420151603346    1.73327451861316   -4.60629440811531
H          -1.94254712227469   -3.15922241826432   -4.36825600251613
H           0.89212259585406   -2.63353739776988   -3.35148037027864
H          -0.77603117179755   -5.17322542040673   -3.81502950894167
H           2.30940355133518   -9.27155590778212   -2.52885789299103
H           4.60411074802624   -5.29608501628044   -0.51937522292972
H           4.55891226379460  -10.69404898000663   -1.65345082654336
