83
 SCF done       -180.843474262458          0.000830625869
C          -5.28720639568052   10.30292960976368   -0.40545809671016
C          -5.06463859633918   10.20098326034032   -1.75575749428314
C          -5.58879985848922    9.19859128781900   -2.58308973422877
N          -6.05754811870016    8.49075287117428   -3.36029209309244
C          -4.37484352792624   11.17299347461314   -2.51357362894463
N          -3.78398939400272   11.91965930899221   -3.15286526593448
C          -5.04424339377995   11.48693388091018    0.41038726036260
C          -5.59580384548315   11.27565684439322    1.70215626928930
C          -5.56131694993615   12.23138621074096    2.68859377334654
C          -4.94754641703615   13.45301855942167    2.39170937128186
C          -4.39568991051178   13.65360112030482    1.10282409779122
C          -4.43660821727288   12.68907244116959    0.10269896069898
S          -3.68190658790257   15.22853289209435    0.95171106782784
C          -4.12697702286746   15.59385642688924    2.59754478576773
C          -4.77855739158503   14.58757661405002    3.22986183195854
Br         -3.69141946086524   17.26503987395828    3.32487401783146
C          -6.15010360308923    9.92001948594446    1.76627823951198
O          -6.67317241099868    9.36619753504089    2.72444464286687
C          -5.88788411000817    9.31089390797258    0.45326870858271
C          -6.06296356075517    7.96967892179708    0.23455865066621
N          -6.60807601132727    7.20474326528540    1.19658455650122
C          -6.73622813490958    5.85270885934514    1.29508895348793
S          -7.00099835830491    5.21208680252944    2.88851119351910
C          -6.96400150188314    3.60617798370928    2.24046555268101
N          -7.16374315320734    2.53526054938077    3.12944968376976
O          -7.13777992862072    1.41158699777823    2.67193994209201
O          -7.34904838185660    2.82825323138593    4.29567399012227
C          -6.75621245625092    3.56917227597896    0.88961859810874
C          -6.63848443777014    4.85334784539220    0.32051451023708
C          -6.50938147292703    5.10023085307613   -1.09224286332777
C          -5.96736626529438    4.26054865755938   -1.99121589102147
C          -5.87761469986763    4.65904817582004   -3.35997987068796
O          -6.36267824146829    5.88627323826609   -3.73156132622536
C          -6.05030680000506    5.92822906678050   -5.03259501520026
N          -5.44923056520598    4.84620613055309   -5.43986413668910
N          -5.34209858078506    4.04310212674824   -4.36925395652335
N          -6.40093929997038    7.01282894826653   -5.75701458180656
C          -6.12966193734491    7.08724965185278   -7.09223791086501
S          -5.10703201892008    5.89672508648407   -7.80637488101175
C          -5.26905610238332    6.71651514993342   -9.33679494357280
N          -4.59870901594978    6.18417800645792  -10.45327345235066
O          -4.72968348119692    6.75793384380309  -11.51594894728579
O          -3.93567233836349    5.18312503370351  -10.26595328510568
C          -6.08104119617079    7.80961776744724   -9.29042322851208
C          -6.61791349415627    8.04146564335720   -7.99956362456232
C          -7.60545804397424    9.05466571411713   -7.80604376254384
C          -8.32681708731958    9.37013842486456   -6.70057079099333
C          -9.38165830113579   10.31352191376901   -6.75306471919251
C         -10.10457206707994   10.79323466235317   -5.69949510548106
C          -9.84829485051681   10.73881099234932   -4.28130360195326
C          -8.60421663025909   10.74301333179365   -3.69772332961597
C          -8.37580558641847   10.71310807185976   -2.31287767123983
N          -8.11724785579956   10.65293513502292   -1.19408756163730
C          -7.42536065043223   10.89089477784693   -4.45793104818658
N          -6.45884557749777   11.05969721912018   -5.05355635899253
C         -11.11747709684251   10.93923255405131   -3.59569709892990
C         -12.08710490897275   11.33585438216751   -4.55190792514614
C         -11.47091652928030   11.34534550552478   -5.89832992360807
O         -11.97867237347353   11.67748197580930   -6.94295572633249
C         -13.38095769539593   11.63452885807961   -4.20260770265764
C         -13.73501207857900   11.52697262799467   -2.85238853245143
C         -12.75992202031661   11.12362069870688   -1.90845263971693
C         -11.44761527326341   10.83104896622342   -2.25893796654366
S         -13.41729200989966   11.04900161800351   -0.30226924680714
C         -14.97115564721232   11.55711255345815   -0.90916737059870
C         -14.99757207853421   11.77076907952207   -2.24654918438295
Br        -16.40824331662603   11.75185257880634    0.27894384725792
H          -5.99431302157845   12.04437791655217    3.65868780464696
H          -4.00157554544235   12.89028072242269   -0.86189359509569
H          -5.12467451200240   14.64298176822566    4.24573881212661
H          -5.71878236903303    7.49778830776043   -0.67541837084923
H          -6.82878927040107    7.75598027369886    2.04883608407885
H          -6.72540460624632    2.65201468553051    0.33051718679857
H          -6.90485180905674    6.04035445949781   -1.45224605005253
H          -5.54039083597779    3.30412124971556   -1.74203416298840
H          -6.59133030967742    7.84513106049549   -5.19785929494830
H          -6.29826381051421    8.41486512869833  -10.15239624778591
H          -7.81867383458415    9.62286866270891   -8.70331486277895
H          -8.16506332459221    8.86649078790566   -5.75992604105323
H          -9.73535338969542   10.60964235709755   -7.73462630663898
H         -14.09981933135736   11.94255262443099   -4.94531868069767
H         -10.73579354722111   10.52372770038594   -1.50997444127887
H         -15.87208615638418   12.08603093515649   -2.78558284408018
