88
 SCF done       -162.956920340757          0.000384343136
C          -1.48706391557234   -1.86326882006053   -0.33326921980456
C          -0.93407203197709   -2.22813239028465   -1.53825581138077
C          -0.13841711654360   -3.37513562964054   -1.72918210824479
N           0.52461408578091   -4.28680147839842   -1.95013399013260
C          -1.05888101498563   -1.50620900006187   -2.74111496285541
N          -1.11431132137403   -0.97428147560163   -3.75825088971084
C          -1.36647724409376   -2.60928824631870    0.91367679509741
C          -2.01603846582979   -1.88867026827868    1.94637045519722
C          -2.08297278161745   -2.34303566924421    3.23982881776980
C          -1.49087087391213   -3.57756552278195    3.52899117001976
C          -0.84347769561229   -4.29057531181395    2.49244668132237
C          -0.76767127108692   -3.82611346433895    1.18519467898756
S          -0.17775729222746   -5.78951370056708    3.06718695859377
C          -0.77292384688801   -5.44345981522457    4.66941016091315
C          -1.43473254433497   -4.26674970586172    4.77139494334100
Br         -0.46182747887205   -6.66746720261543    6.05568231962597
C          -2.56324576305066   -0.63528668573648    1.39601738912507
O          -2.98183348285222    0.31061016903119    2.02380357874690
C          -2.31628693726348   -0.70649582488669   -0.07315454676195
C          -2.73651955864595    0.23121517101622   -0.97071823287814
C          -3.77298475488424    1.16078769962225   -0.70887148528337
O          -3.84476685526230    2.30590565054302   -1.44651050695993
C          -4.87752402607361    1.11373951224946    0.12352408778870
C          -5.62795730893863    0.26760009319297    1.05935040017691
O          -5.43947376877981   -0.85580605354663    1.44710610371974
N          -6.73394646010940    1.04947563230158    1.38847194450209
C          -6.81744663102729    2.27519732787934    0.73229855288209
O          -7.70470672396293    3.07722457613200    0.86833796753998
C          -5.61819180555682    2.29443670365267   -0.10966548244436
C          -4.94801911433063    3.01016502294841   -1.08552255935285
C          -5.27316000560701    4.24938610294719   -1.69935088806084
C          -4.55420356617164    4.80637393566094   -2.69937757505914
C          -4.93522205889551    6.03101450929709   -3.32863469069379
C          -4.33273879166953    6.61923387093779   -4.37782081424855
C          -3.10694465803140    6.11395603844422   -5.06313438319566
C          -4.92199661356952    7.88145866138942   -4.96440328105626
N          -4.04423608593321    9.02280986514392   -4.83942819710617
C          -3.20911002781729    9.48681484838682   -5.79527713318847
C          -3.05903502645794    8.99235108411975   -7.05432716346624
C          -2.22442502024486    9.57470556733136   -8.02427096289970
C          -2.01413898584416    9.03001144744366   -9.26533472952416
C          -1.23320008257051    9.54297393577191  -10.32616958268408
C          -1.20924672699359    8.75753203216282  -11.44102642276699
C          -1.96036148417635    7.56971382098523  -11.32178599845669
S          -2.72275309438945    7.49029338679414   -9.75093867795855
C          -2.11075725788873    6.54978047107964  -12.24395243851965
C          -1.59451415456947    6.44586557361368  -13.54903775356356
C          -1.91831706516312    5.28074513774430  -14.18228090088604
C          -2.70345093402637    4.38714935077603  -13.41676960025452
S          -3.03161789044755    5.11073329034542  -11.85291325725833
C          -3.11433956956599    3.14408835270002  -13.84198412279473
C          -3.84919548296302    2.14589065641018  -13.19745800101984
S          -4.10241350751464    0.64794716118425  -14.09852948874796
C          -4.99005441546101   -0.13900977579099  -12.82703625642919
C          -5.09287460365074    0.73276646115702  -11.74764035534025
C          -4.46344825359681    1.99640379517550  -11.94972203011808
N          -4.67366722378326    2.69502454067939  -10.80776579090917
N          -5.37241470238825    1.98142444277131   -9.91290649971469
C          -5.63581183766538    0.81362572501831  -10.44035784050048
C          -5.49861858316495   -1.46475441219882  -12.92841549012311
C          -5.36050387582605   -2.25940470188657  -13.99370348219723
H          -2.58723208369360   -1.76996992906384    4.00147406525652
H          -0.26233186250002   -4.40742438328922    0.43222962379685
H          -1.86717249754054   -3.89822949744943    5.68363539817374
H          -2.30133103244887    0.28749750966285   -1.95898317449675
H          -7.44087189869194    0.73494239421194    2.03773046278890
H          -6.16771790218419    4.72176174908452   -1.31930034854554
H          -3.67404660884326    4.28830911143368   -3.04987914326899
H          -5.82594295884228    6.49456898886250   -2.92135109985368
H          -2.58885178627381    5.36356981813634   -4.47606224769627
H          -2.41964372035119    6.93386573294615   -5.26626063371129
H          -3.37757138550426    5.67143102525030   -6.02272955433558
H          -5.86207472095981    8.12169305992588   -4.45845973280513
H          -5.13567869338233    7.72951450806588   -6.02489052466449
H          -3.93701815569591    9.38790974645935   -3.90678088127946
H          -2.63335764430262   10.35422566733031   -5.49892047434583
H          -3.58738643697925    8.10092041838935   -7.35903166296196
H          -1.71728638507145   10.50091047958040   -7.78888366170101
H          -0.71353006124058   10.48064363763758  -10.23371755129100
H          -0.66648864182801    8.99564243316770  -12.33829614429956
H          -1.00082185174695    7.22737809047104  -13.98819648124832
H          -1.60873894311534    5.03017523708768  -15.18165527450965
H          -2.79859415514739    2.88555574678144  -14.84596499970626
H          -4.37416267228986    3.62614634806735  -10.57328881969006
H          -6.19017878875572    0.07848709425887   -9.89352951448590
H          -6.02690738960349   -1.81239683307175  -12.04974019205074
H          -4.83595069798541   -1.92731809965518  -14.87437606772806
H          -5.76467543880152   -3.25521652326884  -14.01071076620989
