105
 SCF done       -197.387146768769          0.000576465411
C          -9.00674396844724    1.68957531366762   -4.43020943162478
C         -10.27621208699541    1.83344368702842   -4.92512198369067
C         -10.94873363847306    0.84221991810163   -5.67041814064941
N         -11.54042929131448    0.08252471494452   -6.29528261562842
C         -11.08365719019669    2.98433733119855   -4.80836193915171
N         -11.81125591252619    3.87231067941766   -4.76879676000760
C          -8.17456868588967    0.50320711442678   -4.56815783034987
C          -6.92414532139973    0.75035253614716   -3.95060603942227
C          -5.92070161359567   -0.18790544925795   -3.90335856633503
C          -6.14922356103716   -1.41715176127683   -4.52710132658771
C          -7.39516418811495   -1.64943089546672   -5.15891229608502
C          -8.41960972440329   -0.71251876792452   -5.17956851434637
S          -7.45587270585615   -3.22199573607353   -5.89274965205306
C          -5.82984524337262   -3.54398686700564   -5.35025124343599
C          -5.26971052425859   -2.52627575628133   -4.65289179528235
Br         -5.02462697081378   -5.18722710505237   -5.76020928901572
C          -6.87918320879579    2.13725983810497   -3.46102031726901
O          -5.93810903762450    2.65834801678369   -2.89100751349185
C          -8.21992214373601    2.70669061730567   -3.75065024932011
C          -8.66949432267202    3.92093267835211   -3.33437484352717
C          -7.86661656338674    4.99753168419745   -2.85398022422560
C          -6.61992266561223    5.31098665815126   -3.24386777686825
C          -6.13369843164004    6.54042627034754   -2.56198173251320
C          -7.42249496609858    7.20051351867442   -2.02560816808679
C          -8.39636117259070    6.01720326480448   -1.87963168733610
C          -7.01479330224542    7.93751150997003   -0.74349542725154
C          -5.81785842495854    7.13438817482352   -0.19229951650800
C          -6.41821110482738    6.36357575485669    0.95504184965144
C          -7.63363630577955    6.79095188064235    1.25192680274906
C          -8.06913476568517    7.92599648973987    0.37362201188241
C          -5.30912087001151    6.27716059562999   -1.32101348810499
C          -4.27704530807809    5.45272966222971   -1.15990960314099
N          -3.75172881023646    4.56276985157282   -2.09065767696599
C          -2.48158291185155    4.13898142135278   -2.00627636127841
S          -1.43243222660411    4.87067350960262   -0.82448317527032
C          -0.15309047798159    3.78071160920951   -1.27438606199268
N           1.05756480010225    3.88687065736556   -0.59101005871870
O           1.95765111680399    3.12764821872064   -0.90486556500170
O           1.12176298447036    4.74130768561879    0.27948660894462
C          -0.51328938273294    2.92235332484644   -2.27196348411058
C          -1.83187567731008    3.11854678705230   -2.74012468793250
C          -2.32811097320417    2.31979356008596   -3.80950830325908
C          -3.41653626393375    2.51279212631112   -4.60352049705290
C          -3.80880124509861    1.57060547534182   -5.57041167999429
C          -4.95886187525909    1.65288439530675   -6.31147540477087
C          -5.50480826361715    0.67059600741120   -7.17236279382699
C          -6.74577699423668    0.96730078911766   -7.64843783004616
C          -7.24021629841487    2.21714567412334   -7.21135937309371
S          -6.06599458566345    3.01622257968321   -6.19916235521708
C          -8.46243367970803    2.80149983783412   -7.47842581149370
C          -9.53478297295575    2.30991257206352   -8.25071296769365
C         -10.59650871574463    3.16167418584059   -8.31044460598795
C         -10.41397557253622    4.38521341690643   -7.61928111667100
S          -8.85694763834741    4.38326941066524   -6.83071901568062
C         -11.37021340308452    5.37767596123564   -7.51162395221965
C         -11.31721032448964    6.62356980137323   -6.89140272507964
C         -10.27393595660345    7.42573565891508   -6.46793399032032
C          -8.87422648866332    7.47238521505831   -6.75728797507119
C          -8.24147810335354    6.96522425754309   -7.87457419381176
C          -6.84928921085591    6.98533863467727   -8.06884189719582
N          -5.71595150039946    6.93165510060067   -8.25104036933735
C          -8.93670012669982    6.45047157889932   -8.98392851564635
N          -9.47439784114395    6.04921846824585   -9.91606120526376
C          -8.24023081191863    8.34942724852409   -5.77253248506992
C          -9.25697253428339    9.00375700359418   -5.03566322521010
C         -10.57323269063090    8.48568678192421   -5.47397307940660
O         -11.66382884841636    8.83462826559363   -5.07949369012740
C          -8.98478037433150    9.94947584409751   -4.07896883966715
C          -7.64013837553120   10.23644098921648   -3.80951375017322
C          -6.63262244893008    9.55436933439657   -4.52868632831886
C          -6.91042600855889    8.61890305934194   -5.52072876883070
S          -5.04291554265699   10.01216269230610   -3.98999765348268
C          -5.74691943992701   11.10146123430018   -2.82301385513296
C          -7.10035210315868   11.12556627881660   -2.83890390087920
Br         -4.62643035408177   12.07877705787407   -1.67442046119449
H          -4.98479226299349    0.02726687255875   -3.41230963989372
H          -9.35491650589229   -0.94235509151532   -5.66126870459093
H          -4.27680784228960   -2.55652728444711   -4.24296140019969
H          -9.73483915129365    4.11509748598273   -3.35579884829714
H          -6.05690637110562    4.80364844736093   -4.00483405638416
H          -5.56161278443408    7.18988584868332   -3.23166424496034
H          -7.83772212770958    7.89511700136061   -2.75610580742669
H          -9.42638408557380    6.29420011295081   -2.10423011037944
H          -8.36273237787650    5.59599077007425   -0.87228874144127
H          -6.72498561412396    8.95688982352755   -1.00280058287068
H          -5.01438468078416    7.77641368660273    0.18511142715858
H          -5.87270101315370    5.57863504465423    1.44738822598636
H          -8.26236611146052    6.41818714842705    2.04213150196352
H          -8.04454552468950    8.85971773984014    0.94109252801126
H          -9.08234762291071    7.80096957563973   -0.00752607000570
H          -3.74640848084838    5.46624061266839   -0.21320382762002
H          -4.40962004113764    4.04945907810667   -2.66970682383829
H           0.16276792392501    2.18612943571413   -2.66857787602795
H          -1.71706707287267    1.45003974872860   -4.02073916300220
H          -4.02747284100314    3.39829637697258   -4.51275028798319
H          -3.19698881133932    0.68764826097786   -5.70423794057072
H          -4.96924854941851   -0.23578127436434   -7.39421576934793
H          -7.31905738326151    0.32874766110431   -8.29576352237660
H          -9.49692500067415    1.35297047259180   -8.73844009334137
H         -11.50297006818819    2.96128851149021   -8.85210246450636
H         -12.33654209853956    5.09997641218724   -7.91415833959865
H         -12.28751889230311    7.04240459483608   -6.63772754958350
H          -9.77970029217960   10.44547818057848   -3.54464889050461
H          -6.10933563481807    8.13044115224271   -6.05003391272536
H          -7.69701730864348   11.73940446054833   -2.18920863006113
