96
 SCF done       -186.454357472762          0.000683447709
C          -3.96369159659118    2.77166126114578   -4.99358315630033
C          -4.41920216529991    1.55776899640238   -5.44116590270797
C          -3.60077367409915    0.58035015682994   -6.04491733145698
N          -2.99024774582965   -0.24908742787240   -6.55209411844435
C          -5.75313853343951    1.10578925590362   -5.36627909297420
N          -6.81193690625973    0.66178155616204   -5.34506497897093
C          -2.58193437055266    3.22827606891036   -5.04024887658396
C          -2.50101755469207    4.51087416930125   -4.44286777103601
C          -1.32194103595430    5.20833059880860   -4.33618827639868
C          -0.16177339082992    4.60965811893672   -4.83769371384275
C          -0.25007574936389    3.32704665925425   -5.43095057139386
C          -1.44325525529963    2.62382443492972   -5.54233998752532
S           1.29932004664150    2.77282173801622   -5.98621522170587
C           2.03509353011021    4.25013372677659   -5.42217184752152
C           1.16653010902824    5.11540401857432   -4.84649267376182
Br          3.87788105209089    4.51110405699455   -5.64712207012387
C          -3.83519277060669    4.92647901592391   -3.98378064820165
O          -4.12503750216509    5.99392736455685   -3.48853122949602
C          -4.75079006260456    3.80490180431244   -4.34038095595691
C          -6.09797467775783    3.81948682651890   -4.18409440477066
C          -6.82926201581358    4.76419240530236   -3.39817889863744
C          -6.55007443143835    5.41808587578024   -2.20872909931994
C          -5.35338325001904    5.30110762398670   -1.36455009603041
O          -4.68205460318206    4.30467212548218   -1.26551140824121
O          -5.11921345828633    6.41220475865016   -0.66472109413298
C          -7.73118277590724    6.16892289545176   -1.94652392852252
N          -8.61446612478889    5.95192721315128   -2.88976189597126
O          -8.07542413827161    5.09088607202130   -3.78035401093538
C          -7.98004117413961    6.97380442578829   -0.75448459430574
C          -8.02803598823480    6.32907307910191    0.44141072612932
S          -8.32223649958540    7.35618120492484    1.78280265584817
C          -8.36440401419926    8.72520841382412    0.72502058631407
C          -8.15794410779873    8.39479562592843   -0.62320192325295
C          -8.09155948349670    9.43529316273587   -1.58106010573799
C          -7.81270862010251    9.04950385701693   -3.01146284666252
C          -6.31153766585780    8.89860198009006   -3.26703320915098
C          -8.26801276020557   10.76027537294314   -1.19734285240711
C          -7.97521287115445   11.87179369584134   -2.17612535188197
C          -6.91529333813805   12.83644277024504   -1.64061874667060
C          -8.64764698370637   11.06410934018755    0.13802359992832
C          -9.08290759089807   12.30463484041532    0.75934191416433
C          -9.24240480301938   12.16145137910752    2.11651252610105
S          -8.97510142852914   10.58042282773555    2.70231731345179
C          -8.62177098959662   10.03581267836410    1.08892928706707
C          -9.51361620250003   13.46868967999008    0.05794888113368
C          -9.83944370411968   14.69175275944261    0.56467867494678
C         -10.43787150224900   15.73362810304135   -0.17717393964619
C         -11.01924453214826   15.65672139784887   -1.42403780266014
C         -11.63829252767571   16.71375475744615   -2.14015717488465
C         -12.18402855431352   16.35407632233157   -3.34033715518031
C         -12.02943813076777   14.98633709282670   -3.64093472439769
S         -11.17123321163600   14.18106079776227   -2.35478075476066
C         -12.40499951417216   14.20717135875098   -4.72363594817568
C         -13.07762448233553   14.50634867081563   -5.92425765145448
C         -13.24978557789779   13.42311891986714   -6.73747463938958
C         -12.72924421973810   12.20872687804079   -6.21715817920940
S         -12.00547572502034   12.50609131042491   -4.65514242263515
C         -12.73848501481868   10.97797734374085   -6.82624179505932
C         -12.25766527495814    9.76752225195071   -6.28455344457184
S         -12.08067110097590    8.35946615557909   -7.32898966202953
C         -11.49292828826493    7.33636413833059   -6.08145039395736
C         -11.43534762531551    8.02088277828413   -4.89136118519552
C         -11.86285265356937    9.38144530127139   -5.01252723366818
O         -11.82901681861303    9.98861123741882   -3.80685973415343
C         -11.38249197138966    9.04760597917575   -2.93036444205074
N         -11.27075961724421    9.43673443135887   -1.57868452228062
O         -10.99257862536349    8.56451201948091   -0.77465066726492
O         -11.46124783500786   10.60443719860008   -1.30227608460331
C         -11.12339522458740    7.83722208702859   -3.51486239327588
H          -1.29582419436873    6.18407113304219   -3.87695874484109
H          -1.45695510879296    1.65144291432985   -6.00519089110506
H           1.44944250511404    6.07128804847321   -4.44495519315581
H          -6.71511062138570    3.08011643989251   -4.67681542709995
H          -4.32191867105510    6.30370245245932   -0.12309734688831
H          -7.92225444326371    5.27345938940812    0.60532064582697
H          -8.23524914889484    9.77985832079734   -3.70300025170665
H          -8.31522060516189    8.10743529456707   -3.22098028304014
H          -5.79733805182007    9.84457988710834   -3.11222576788911
H          -6.13222114554362    8.57048605078831   -4.28863930112905
H          -5.87685626699894    8.16550604594289   -2.59275471409882
H          -8.88876986709722   12.40572738254929   -2.44307571818168
H          -7.57960296712658   11.45605354049773   -3.09877189653085
H          -7.24836978807896   13.35927677361103   -0.74901919200078
H          -6.67539106239246   13.57694442913618   -2.40070910831511
H          -6.00804707285792   12.28771186821658   -1.39560805540258
H          -9.57646423563118   12.91441594116998    2.80296294704776
H          -9.63763154770749   13.31829187441478   -0.99651863474310
H          -9.61981095243927   14.91674295496495    1.60011672849411
H         -10.49331545798590   16.70236107648809    0.30407241196368
H         -11.66637602555700   17.71391074801662   -1.74323574421261
H         -12.69590395348788   17.03095736974864   -4.00133652009278
H         -13.41603449767528   15.50058128519788   -6.15721949023804
H         -13.73999801396547   13.45447903932172   -7.69468364534183
H         -13.13172509688643   10.92255075046772   -7.83203502323612
H         -11.24003433318089    6.31815672908817   -6.29003158377764
H         -10.73775407138441    6.96188726466121   -3.03192152430120
