91
 SCF done       -186.023287144996          0.000782572906
C          -5.40995959819646    7.92640676064478    4.49292098124834
C          -4.06040012250088    7.75584642017351    4.32275775931103
C          -3.16534261251130    7.45796575343157    5.37057323527808
N          -2.38830928910809    7.21831692371411    6.18121903940051
C          -3.38261451046661    7.89166166290267    3.09415540760826
N          -2.77073140893972    7.99238889732433    2.12739500179706
C          -6.13136936833220    7.80767321100197    5.75571445784799
C          -7.47660977832412    8.20704936622776    5.56010192365823
C          -8.42121663584448    8.16189570198016    6.55670069358901
C          -8.02547167461991    7.68219694299366    7.80977964357865
C          -6.67870690485232    7.28633719357781    7.99743285319201
C          -5.72109899247108    7.34328559464273    6.99218458513742
S          -6.39956165881438    6.73704765924665    9.62249450434408
C          -8.06625778593480    7.05938296437327   10.02543441575717
C          -8.80160056373798    7.53320100947031    8.99236019362944
Br         -8.64698603706100    6.77573632923453   11.77677324900728
C          -7.66414641421737    8.58951866789251    4.14854259310280
O          -8.61756521209362    9.15583857093667    3.66228648758141
C          -6.38903435088806    8.22324784419235    3.46284344486729
C          -6.23014054829222    8.16581050799405    2.11120270877079
C          -7.32406398183137    8.16439203325733    1.18490721055898
C          -8.50932322758449    7.49285475672515    1.38993965136037
C          -9.74154571397065    7.66410958916017    0.58514563467663
C          -9.73357116440618    8.41808111888917   -0.60459190114383
C          -8.61459138507722    9.02169389611135   -1.06645897212359
S          -7.07868777066467    9.05666276266949   -0.28688527759102
N         -10.78353837743833    7.06325536146499    1.11972409786878
C         -10.32810551787652    6.44728313513885    2.25052782270258
C          -8.93075263598437    6.63611623800570    2.41050877804085
S          -8.31784007566131    5.82958282386187    3.79028961278206
C          -9.96402936625205    5.39650394102807    4.27267534083503
C         -10.90581425075498    5.76511300832520    3.32178487252477
C         -10.09026377750531    4.87070662724365    5.56818834641823
C         -11.24334105834419    4.75855508731938    6.29494575067772
C         -11.25482264813053    4.39535649755917    7.64535440500630
S          -9.79054895041679    3.97730551453904    8.49365811520426
C         -10.61365505960092    3.74805045547691   10.00944947073930
C         -11.99893641282550    4.02228793228160    9.85860535825489
C         -12.35764072396927    4.37552300363007    8.52878695257616
C         -13.68790247534427    4.70664904177558    8.22535393143598
C         -14.61431995650555    4.70665086243105    9.23237497333142
F         -15.88951371369351    5.04248408264379    8.97440628309579
C         -14.25134703494447    4.38174220021133   10.55258978018081
F         -15.18623611341986    4.44351064616524   11.52317707557254
C         -12.96571542115758    4.03441867758752   10.87274223149891
C          -9.97671765282432    3.42837291860837   11.19644819010511
C          -8.62100324755463    3.24090525407813   11.40816060269290
C          -8.01474493409255    3.25343108290404   12.65996492939226
C          -8.56689060777842    3.75782105141483   13.83274479216487
C          -7.92461422410847    3.90812799570218   15.07929966836870
C          -8.64039404661955    4.61569792876752   16.01215282185542
C          -9.88482573095641    5.05935609904088   15.53873805908530
S         -10.14225016609069    4.50182188801995   13.90939582110017
C         -10.88298173797738    5.85250914977804   16.09185877545066
C         -11.04576504484491    6.40146429579507   17.37680699445836
C         -12.19014470702938    7.13530295443927   17.51444277249661
C         -12.97911009389195    7.21178338355243   16.33820678957936
S         -12.20719983453145    6.31370935963191   15.05337074360840
C         -14.19386151285072    7.83773600160093   16.19821753911392
C         -14.95103544853926    7.94086614571779   15.01405697555058
S         -16.64641693371618    8.40932140907343   15.11036916904395
C         -16.90773985409102    8.32124659134000   13.41692800239506
C         -15.74837091551950    7.95910095283892   12.77382782814336
C         -14.65411841159672    7.74657374801292   13.67266428115604
O         -13.52954477941043    7.46051960908303   12.98362752096592
C         -13.88928806544714    7.47064447389040   11.67143680879738
N         -12.89305692497245    7.23084279220471   10.71043365187108
O         -13.23992216888299    7.27071443758483    9.53737746836154
O         -11.75593758441276    7.00310727410468   11.07935847694221
C         -15.21517868779881    7.75964433514591   11.47289258470728
H          -9.43886746269065    8.46846663038477    6.37107251530978
H          -4.71057947773062    7.02507159063405    7.18736173562267
H          -9.84749463304679    7.77003774140397    9.06690430486041
H          -5.23751829773745    8.11840388088282    1.68234635539025
H         -10.65612312196115    8.50012757635688   -1.15904925650501
H          -8.60551491537799    9.58184936350060   -1.98747635846946
H         -11.95684981645202    5.56932183037865    3.42244867591335
H          -9.15678340379113    4.63251725768919    6.06499878001906
H         -12.18950185679423    5.01326073886964    5.84185052994696
H         -13.98753719277252    4.98683691163881    7.23002321875976
H         -12.71582070903351    3.81302090998897   11.89743250626869
H         -10.63856816596992    3.31631798148744   12.04040921403143
H          -7.98210460078089    3.10630586427613   10.54407578895498
H          -6.97690344272540    2.95345393596608   12.72088567989664
H          -6.93832799887837    3.51463476352586   15.25352681046372
H          -8.28290442337858    4.84918074943189   16.99924097324451
H         -10.32853776497731    6.24004425888949   18.16183447904938
H         -12.49107932502515    7.62808075331202   18.42199645124062
H         -14.64042963805550    8.26590876915783   17.08516754649854
H         -17.87080395757289    8.54090496993214   13.00646919322606
H         -15.71645619953218    7.81770511489492   10.52898686324334
