112
 SCF done       -191.535074067621          0.000818082301
C         -12.33359969785211   -1.03400422499071   -5.54510154380911
C         -13.13516888070900   -1.97747972522118   -4.94979085189689
C         -14.32687446759037   -2.47373253228819   -5.51237919752375
N         -15.30516316049181   -2.91303916506736   -5.92397216705426
C         -12.87142928755344   -2.55445260942070   -3.69232335708988
N         -12.69835145305960   -3.04327811860213   -2.66728786528666
C         -12.58645869415978   -0.38600490324126   -6.82889099427695
C         -11.55905024248344    0.56088047529009   -7.07827719247757
C         -11.52263930807285    1.33529852152192   -8.21206557907442
C         -12.54753016911772    1.16702786940960   -9.14964693020007
C         -13.56643529311489    0.21929997311998   -8.89459648464132
C         -13.60465898756996   -0.56285469731052   -7.74584848090965
S         -14.73083167230681    0.17100150672297  -10.18293349111261
C         -13.84526124372205    1.40840850700330  -11.03495540273142
C         -12.73444428269955    1.83667635833218  -10.38977442857790
Br        -14.47138782454529    2.01879753253197  -12.69456930358082
C         -10.61121342011030    0.53593028126271   -5.95668558359299
O          -9.60299409610361    1.22123915122509   -5.81605698459407
C         -11.10696997984233   -0.48048112619972   -5.02516607219427
C         -10.41709101723944   -0.80504852873976   -3.88083899431158
N          -9.28471738131165   -0.16448581385597   -3.56910213957170
C          -8.45257320574682   -0.43829560071635   -2.53204346517335
S          -8.68655678202593   -1.83486303657900   -1.52226577366436
C          -7.21109407042767   -1.45589781605922   -0.69356540316076
N          -6.80733550466229   -2.29628142134647    0.34878188561505
O          -5.76526991216540   -2.02690456015538    0.92011978502243
O          -7.53185535077156   -3.24261696179481    0.60692444649411
C          -6.58728112623581   -0.33328291030115   -1.17156720854395
C          -7.29578038718560    0.28279969135620   -2.21853388698233
C          -6.84660749596916    1.49786793920364   -2.85802671849765
C          -7.63902910699578    2.44687025362404   -3.38440911417798
C          -7.19076873235060    3.66477158862303   -4.02136246126295
C          -5.87006566447265    3.84258269569910   -4.45946819478465
C          -5.50619674457248    5.02781977233160   -5.04708325752023
C          -6.43877182497183    6.06853842695044   -5.20804955884947
C          -7.75251918973860    5.89788991539550   -4.79444632204713
C          -8.11539237932742    4.69913595456622   -4.21541638056100
C          -5.77392400038452    7.19013246089814   -5.83091118700696
C          -4.43352458217713    6.83926554581028   -6.07327296266467
C          -4.15715704553706    5.43326292830960   -5.59352466296973
C          -3.07958488089236    5.42175060052065   -4.49336526724773
C          -3.44053009998142    6.30401709088010   -3.30423662028869
C          -3.72331017108721    4.51679004041695   -6.75227039310925
C          -4.74816944111265    4.46449837042862   -7.87892297634027
C          -3.57486724891347    7.72994845356208   -6.66396037099393
C          -4.02535042775673    9.01798321314772   -7.00883488010127
C          -5.36710253174796    9.35040733832739   -6.75658138391189
C          -6.23848219454332    8.45128809784570   -6.18096081530328
C          -3.09699145855676    9.93770496569160   -7.60206576497620
C          -3.29016016901780   11.27082340060880   -7.78318776237521
C          -2.34344742902693   12.13205641404590   -8.36523335059699
C          -2.51592186790858   13.48863720224981   -8.48175150016148
C          -1.62654475292411   14.42673094937082   -9.05783118532854
C          -2.06336490063753   15.71752143919455   -9.01338078454505
C          -3.32078404949952   15.87657299659856   -8.39495887527012
S          -3.94300284992022   14.32306804618949   -7.88109156063036
C          -4.02426223221416   17.04577931569869   -8.16994435022278
C          -3.66851053856922   18.36476603200078   -8.51854383083763
C          -4.58459402548107   19.29897908121215   -8.13664056477873
C          -5.71588191438139   18.77891886590449   -7.46137121069396
S          -5.56550206750050   17.03746829880178   -7.34188527525202
C          -6.74944734232308   19.55155077913226   -6.98577388327037
C          -7.91759785610395   19.22527002823083   -6.29007090159860
S          -8.96008715231618   20.59812656262307   -5.89666691644150
C         -10.14532476115479   19.63570614693950   -5.08132629865340
C         -11.39124537966181   20.22478755243216   -4.51721592144913
C         -12.53838930614878   20.17611846130119   -5.53155779459989
C          -9.75179857302522   18.32316401482453   -5.12934017291161
C          -8.50925423722157   18.05916180570096   -5.79188911516979
C          -8.31022758096808   16.65658901776936   -5.69908909608947
C          -9.37860454349005   16.14373324876417   -5.02187547090718
N         -10.25472789761956   17.13629824171624   -4.67481487647871
H         -10.72817848925806    2.04715404717856   -8.37298205095381
H         -14.40191464771954   -1.27198986858614   -7.59877266270734
H         -12.07288881747554    2.59306000506157  -10.77092387010541
H         -10.75390242535858   -1.57599703602416   -3.20001719340346
H          -8.99680464360481    0.55823169678068   -4.25325229849605
H          -5.66446673241550    0.03461105104930   -0.76066842165225
H          -5.77574643388849    1.64265635052486   -2.83238776138093
H          -8.71352480853457    2.35927363449945   -3.28819188831252
H          -5.15155078641104    3.04463319751376   -4.35008417826050
H          -8.47885755996890    6.68622124899352   -4.92528566457367
H          -9.13575696033590    4.55161312048211   -3.89092710959647
H          -2.13618596441926    5.76337456773693   -4.92446287824733
H          -2.93743411666581    4.39386776360507   -4.15258352278775
H          -3.56311671056139    7.33852780115368   -3.61726366871753
H          -2.65399052544534    6.26208342566851   -2.55426621427109
H          -4.37041587834923    5.97196876631068   -2.84751520176750
H          -3.56252824527401    3.50949888796657   -6.36192580508812
H          -2.77061196621534    4.87843171352871   -7.14504743695424
H          -5.69803992267699    4.07800718234992   -7.51610134648641
H          -4.39436534433908    3.81560214799471   -8.67691365922860
H          -4.91614672806598    5.45729298692226   -8.29060122886361
H          -2.54499417407381    7.46292081143581   -6.85589666815334
H          -5.72982548658185   10.32808894611061   -7.03343824499191
H          -7.26787670547853    8.72612251068820   -6.00329424890390
H          -2.14379378676394    9.51787948125789   -7.90121002431359
H          -4.21031059606592   11.73410573673358   -7.45246575424976
H          -1.42036817503046   11.71086172109941   -8.74154729474100
H          -0.68999582295507   14.11647897695583   -9.48712215154251
H          -1.51360990143383   16.55567056950872   -9.40321280194797
H          -2.75434792188807   18.59005765984883   -9.03771928785817
H          -4.48228449274165   20.35498271342153   -8.31640147811856
H          -6.63619380016776   20.61223253047901   -7.18287365131146
H         -11.20559828843665   21.26255612007858   -4.23517956355734
H         -11.67569688436537   19.67169153921128   -3.61762653175122
H         -12.27806466629607   20.74826094008214   -6.41863733406081
H         -13.44139972003565   20.59802604941534   -5.09787607985328
H         -12.74108590212605   19.15033261170471   -5.83169652073473
H          -7.48849944035744   16.08837315485550   -6.07820517169825
H          -9.57936577736963   15.12268466789162   -4.75954951628110
H         -11.11267720423628   17.01163089854958   -4.16725095829476
