107
 SCF done       -204.730741952692          0.000466894445
C          -3.62911696955722    1.71825500623432    1.92736089802684
C          -2.79733244976841    2.05122528442076    0.89140191155391
C          -1.69179832518679    1.27501833571850    0.48305737264220
N          -0.78304032886558    0.68638554336915    0.10227561353126
C          -2.90851839613421    3.21341525014781    0.09920827210887
N          -2.92754208794720    4.13597501198175   -0.58456828278293
C          -3.49308987163524    0.54794978973122    2.78369306008869
C          -4.48316868634153    0.60334471998745    3.79512983145291
C          -4.61076306709562   -0.36406950974104    4.76240467101605
C          -3.71727173831480   -1.43916450200857    4.73176342261268
C          -2.73235472772895   -1.48883680728643    3.71541189219034
C          -2.60430789607055   -0.51137147756384    2.73723976661243
S          -1.73541554607769   -2.90435084075497    3.86106374662037
C          -2.63975324491667   -3.40159987400228    5.26662456670223
C          -3.63860232452099   -2.55378896807598    5.61030222517101
Br         -2.18146080949597   -4.99307172110332    6.14593435154906
C          -5.29742623754189    1.82269999765061    3.62756948487037
O          -6.21724007080243    2.17295187328968    4.33300606531032
C          -4.77365694260146    2.48308163468262    2.40114296387609
C          -5.38586906075026    3.49685514788959    1.73703657723170
C          -6.47687967821105    4.28450000947272    2.25169952681878
C          -6.42190312614865    4.80005810633578    3.51800422465835
S          -7.73141647851408    5.81156094949810    3.93362960367097
C          -8.46516599896358    5.50299709975386    2.38803250010379
C          -7.68100451241754    4.68693996523220    1.55989734005557
C          -8.17157779601349    4.33446570101380    0.28152110268587
C          -7.29292279881552    3.51018936440253   -0.62052033602480
C          -6.33992514277319    4.39786208965846   -1.42658467299695
C          -9.42370559202510    4.77073705125893   -0.13648804695181
C          -9.91675744305159    4.43079666745186   -1.52010538755099
C         -10.63852971419475    3.07885964717362   -1.56006553651927
C         -10.23322295485064    5.54988244975103    0.72671270731963
C         -11.56561478112171    6.09462246464353    0.55401194847319
C         -11.92764276733274    6.88604049855034    1.60909009172103
S         -10.76793616496734    6.98787642012464    2.86483970482206
C          -9.70720593490131    5.94580370953710    1.96764000054434
C         -12.49767480172851    5.78559623099375   -0.50065206673446
C         -13.54685807347856    6.54125100931230   -0.88041263365858
C         -14.44853850151815    6.10827760229235   -1.90158497151418
S         -16.02446370862832    6.83466287117147   -2.08228290745268
C         -16.47432507920572    5.74422406552711   -3.37856458947123
C         -15.37525613877377    4.92688708770112   -3.68205294921039
C         -14.26897080675492    5.12258328438010   -2.83718447043376
N         -15.24461550948678    4.10533910731855   -4.81448958534420
O         -16.09904244460647    4.18644681150727   -5.69011518480810
O         -14.27017363858504    3.37269382223056   -4.87774277223452
C         -17.80551417041608    5.79672826647226   -3.81948982428495
C         -18.58190788026199    4.81505787441912   -4.39099553083992
C         -19.95673578192529    4.97395901875506   -4.72348035822488
C         -20.56258492955410    3.83602585795004   -5.15369168703806
C         -19.70012311992790    2.71301709770729   -5.16809947716178
S         -18.09464188569023    3.16744782581167   -4.67182169904661
C         -19.99200768844056    1.40956056129340   -5.53095071754206
C         -21.22631978741789    0.87835094036995   -5.96774621361222
C         -21.17945171491768   -0.45502774107268   -6.24544904414386
C         -19.90759920379607   -1.04236586867120   -6.04134147069569
S         -18.77327360577898    0.15902140094347   -5.47501608861583
C         -19.57667244529822   -2.36842955912874   -6.23322140877733
C         -18.29357767578075   -2.87407559047058   -6.03545567992682
C         -17.86362323564127   -4.17547093600479   -6.15380763313231
C         -18.57114193709788   -5.42253201822092   -6.26858457076871
C         -19.82335102205433   -5.71427933045038   -5.77998407518364
C         -20.43231931966851   -6.97972236950688   -5.88842178719366
N         -20.98433193294326   -7.98415501625390   -5.96461729031499
C         -20.60490068456908   -4.82820718571786   -5.01279114230251
N         -21.26780345885929   -4.16902266627841   -4.34534608718347
C         -17.63136521424110   -6.40869553917540   -6.80229131225096
C         -16.33313277685307   -5.84007357969866   -6.80811693865124
C         -16.41597327566687   -4.44265414354447   -6.33337351872551
O         -15.50488612301545   -3.66358744259743   -6.16310278736296
C         -15.22465112396920   -6.53376515283519   -7.22596776239328
C         -15.40695413709666   -7.84781132753816   -7.67170195835413
C         -16.70850459335328   -8.40143642739727   -7.67504493366835
C         -17.82991757418127   -7.70222411332076   -7.24259731268254
S         -16.70826625258480  -10.03095390826874   -8.27838485076528
C         -14.98191541200547   -9.94867216912328   -8.51042481287164
C         -14.43248005881779   -8.76299914680999   -8.15677175018252
Br        -14.06948983907225  -11.43491158374133   -9.20122625234412
H          -5.37584731153268   -0.29151064837789    5.51941343325344
H          -1.84100940363974   -0.59715079090008    1.98214458075477
H          -4.29392578691099   -2.70682085692396    6.44819826833377
H          -5.01528536521014    3.76727177583728    0.75908068634626
H          -5.61989485833895    4.67663999754285    4.21900591302495
H          -7.88783029250806    2.91231385210627   -1.30738813131102
H          -6.72358723635140    2.80843510225067   -0.00677038084110
H          -6.89523612460875    5.01008887700315   -2.13332963365269
H          -5.63134586162417    3.78919909847927   -1.98339832873061
H          -5.78190365384203    5.07144017780152   -0.78053558180009
H          -9.08100806341950    4.40428099139503   -2.21767876230011
H         -10.58039423363350    5.22469685906443   -1.86367873952872
H          -9.94254550420852    2.26339027998511   -1.37905481092936
H         -11.09612803365372    2.92265291234594   -2.53469542826961
H         -11.40888597578583    3.01633981668623   -0.79415832835016
H         -12.86947060298897    7.38105500711227    1.74239379508742
H         -12.38057168762938    4.82893194434256   -0.97831577832044
H         -13.75344412535271    7.49676618716032   -0.42122134167531
H         -13.36018386547318    4.56615634876252   -2.97404021587849
H         -18.32609252989635    6.71596591246117   -3.57688397127265
H         -20.44543644493941    5.92786169177836   -4.63262022372865
H         -21.59202702801901    3.77222042376746   -5.45626112971601
H         -22.10590547367824    1.48822501412046   -6.06799461436317
H         -22.01639902537988   -1.03872859752126   -6.58472634866502
H         -20.36487837677247   -3.01888123621044   -6.58305976864449
H         -17.50216322022305   -2.15402943034604   -5.84651197027847
H         -14.24709416698024   -6.07802170659294   -7.21187055452434
H         -18.80246109669945   -8.16504846920640   -7.26907087781554
H         -13.38411842214502   -8.53977454460635   -8.23499683021707
