86
 SCF done       -176.321265123118          0.000789861111
C         -13.26546750930855    9.89062389119332   -3.12000751979032
C         -14.33542451484710   10.23487500017168   -2.33605014332817
C         -15.31118454229655   11.18580773329281   -2.69844105996147
N         -16.13212102332938   11.94989573061911   -2.94229395835935
C         -14.58519996612252    9.68310105682667   -1.06289142511272
N         -14.81644281333382    9.25690946526148   -0.02243561251193
C         -12.95552107087427   10.44298873155559   -4.43678647740646
C         -11.75400231802586    9.85560410234450   -4.91242507168335
C         -11.20421800533603   10.17164531069876   -6.13162260260096
C         -11.87180997840512   11.11169910216857   -6.92296974453769
C         -13.06928652801347   11.69346553952388   -6.44154568600644
C         -13.62417347855788   11.37440168295912   -5.20701613761525
S         -13.73042725106178   12.82656964790101   -7.57865638303106
C         -12.40939503633479   12.50840371079198   -8.67169358118005
C         -11.51671597180555   11.60032383616778   -8.20955020705806
Br        -12.33253380544003   13.40375426267601  -10.31723038822484
C         -11.26371522466460    8.90509879677029   -3.91076124725650
O         -10.25008347884166    8.21281871667766   -3.97130313419060
C         -12.22947147766119    8.93206398411205   -2.80785600723250
C         -12.08386742968827    8.11693668747613   -1.71067278459826
N         -11.03042073171588    7.29593737700920   -1.63831829123739
C         -10.72812248564265    6.39865780086667   -0.66928197710607
S         -11.75404429492862    6.13282852084777    0.70234843141912
C         -10.65110934371040    4.91459817134318    1.25734568097392
N         -10.96220833373438    4.26367691160266    2.46278588284887
O         -10.19132141817773    3.41449570949734    2.86105484597666
O         -11.99065329300757    4.60887295041821    3.01537992603016
C          -9.57124336574881    4.72645667632896    0.43952014497905
C          -9.58923075949081    5.57888083878641   -0.68325816077895
C          -8.59153925019157    5.64976746624091   -1.71133858483945
C          -7.56806158635387    4.78853653925709   -1.88461999603377
C          -6.60805694080438    4.93868962489846   -2.92528159774281
C          -5.58389158589507    4.05542277152630   -3.24346935709063
C          -5.39399467928412    2.87273833962660   -2.50926375090475
N          -5.28558767490081    1.92768722459993   -1.86950037340734
C          -4.79979983027422    4.49686693836578   -4.34194686265927
C          -5.25411339646751    5.72441076157805   -4.81561284737322
S          -6.61975386655271    6.34061893207560   -3.97524552703730
S          -4.35813090134960    6.38361528925235   -6.14269060837746
C          -3.34382875542373    4.97778485205236   -6.07959863770799
C          -3.67503320098421    4.04966046521627   -5.09836310538740
C          -2.80840884453762    2.92867975250878   -5.14213110237507
C          -2.87169337516934    1.80415641313657   -4.31066781159404
N          -2.88676341360764    0.85998562343490   -3.65778960583778
C          -1.83685518408779    3.03562781728320   -6.14533088633904
S          -1.98901984525570    4.53381292835687   -7.04562122162986
C          -0.85123867741330    2.07726984635096   -6.43008193635677
C           0.14157029572945    2.16691717563633   -7.37143267752231
C           1.12679405539558    1.17845348699000   -7.63540959467258
C           2.02100457392267    1.52119792019925   -8.60079147439333
C           1.80198599281417    2.80274442522266   -9.15646317125637
S           0.39546812535257    3.54820266982506   -8.41932584129056
C           2.53720060541231    3.46492552183056  -10.11482221558212
C           3.70951815425648    3.02886583089782  -10.77943026021110
C           4.21268918162960    3.93809441126901  -11.65272771099809
C           3.48232071782119    5.15819936247517  -11.72526692815367
S           2.09439642988350    5.06982218004342  -10.65439950207644
C           3.77441546250571    6.19079787992443  -12.57171282977956
C           3.15595767465444    7.45815781818083  -12.68761135709742
C           2.53472949429264    8.28511048983263  -11.75912726866252
C           2.01437766364006    9.46603033694904  -12.35192789229865
S           1.10639114162681   10.76564784796266  -11.58323467385590
C           0.83204554548822   10.05602447554970   -9.92842724038117
C           2.13448965199837    9.56323176521357   -9.34122265438647
S           2.59878723533925    7.94383023306976  -10.04043090491134
C           2.27519857754810    9.54489559309427  -13.68991688587863
S           3.15833721494862    8.20254856393006  -14.27364678433411
H         -10.28968047846938    9.70704091414877   -6.46533756796348
H         -14.53892387994418   11.84438152953543   -4.88680140791272
H         -10.64419996484322   11.28671364200267   -8.75291519459627
H         -12.79162516022006    8.10086031175646   -0.89200511393593
H         -10.40284512735252    7.36684111396361   -2.46302670491266
H          -8.80128456968822    4.00994830854243    0.65934437323919
H          -8.67243749527157    6.47251129377846   -2.41071408228888
H          -7.43679283336756    3.92645461658280   -1.24590505361416
H          -0.88631089562589    1.17724181485183   -5.82923542691067
H           1.13721548556300    0.24924312305062   -7.09398811019401
H           2.83304194418600    0.89493945128651   -8.92386451530425
H           4.14433554921486    2.06451569552232  -10.58783814476998
H           5.09804312515291    3.78888282440452  -12.24533704665161
H           4.54553217152726    5.99446261808673  -13.30719969447926
H           0.09987182083373    9.25074561450831  -10.00136642223399
H           0.41664882023862   10.87395351416279   -9.33959336739206
H           2.03874143999977    9.37328059469970   -8.27209824213082
H           2.94301443412543   10.27456098380199   -9.51385662410805
H           1.98382427838321   10.33486051547929  -14.35187728478077
