86
 SCF done       -182.382976933983          0.004034731468
C         -15.91966204259467    7.41805078689645    0.16490016767687
C         -16.25632078137989    7.04923553893000    1.44095849998433
C         -17.53149419030722    7.24660942068621    2.01276307266735
N         -18.54928485302689    7.37549511549782    2.52782141512229
C         -15.37275698333749    6.44339629997162    2.35755730583066
N         -14.68666149371092    5.95969789674451    3.14154233984477
C         -16.77892298639418    8.13235919398693   -0.77170476779216
C         -16.04845362941946    8.38093889312641   -1.96207291613442
C         -16.57009705732304    9.07503761329677   -3.02669938914743
C         -17.87204911180288    9.57064016723653   -2.90104703327144
C         -18.59612608926675    9.32122934031944   -1.70922838071376
C         -18.07326427340012    8.60097899685736   -0.64156742619493
S         -20.17045147391948   10.05121616407947   -1.75798136376297
C         -19.83591970884733   10.68075158741578   -3.34969320046410
C         -18.61028071849795   10.35388430826915   -3.82712120841236
Br        -21.13245202246529   11.71008551227726   -4.22431215259674
C         -14.69121692380435    7.84863672668236   -1.81078003340863
O         -13.81141649241513    7.82627836662894   -2.65807335645797
C         -14.61691853821113    7.27582498518384   -0.46206054162359
C         -13.54135346699239    6.58600044919303    0.03163470545945
N         -12.25235451588301    6.67438056832278   -0.36548794992082
C         -11.56015156729081    7.72752136262921   -0.89140823466889
S         -12.25713188498079    9.29329588749490   -1.08878446413868
C         -10.71673917121440    9.91708833676089   -1.55408690721525
N         -10.65222331497106   11.28809357205603   -1.86279256331700
O         -11.70302969807868   11.89751285476868   -1.79089206628471
O          -9.57233210904003   11.75724380349674   -2.14427228267199
C          -9.72976845269003    8.97624893657392   -1.58486694925125
C         -10.18653144820188    7.69800073208086   -1.19788852933243
C          -9.35036732493414    6.53681860712883   -1.12520462066229
C          -8.11856749411717    6.47915484507054   -1.68367256667749
C          -7.25723110153655    5.34485650897291   -1.66747900242405
C          -7.31223747477785    4.25702595151824   -0.67135610269108
C          -6.31479539017434    3.38054893770436   -0.84602489942432
C          -5.51577045342542    3.82406458632819   -1.99938713663027
O          -4.51904987643345    3.35804850425337   -2.49721923972807
C          -6.19718162282063    5.07565400333454   -2.49242518544669
N          -5.63272270824171    5.64335787056278   -3.59587670735561
C          -6.03183236902916    6.59822899773579   -4.47300284611552
S          -4.78289250755914    7.49540683515136   -5.28807729650158
C          -5.99694010326811    8.41880343866141   -6.11633496595238
N          -5.55223462723178    9.38473715520036   -7.03430158321692
O          -6.39053304062100   10.01154319764372   -7.64798729695675
O          -4.34505762956378    9.50562755014270   -7.14434661577788
C          -7.27208854765583    8.06075835561518   -5.78944408165278
C          -7.32421439214510    6.99141877103551   -4.86771635658850
C          -8.51557308242710    6.31869965535720   -4.45532575108049
C          -9.78925100384883    6.72328368024013   -4.68865921786301
C         -10.86344326123207    5.98105001204863   -4.14382861439426
C         -12.20488142583753    6.08155704603091   -4.33598478310897
C         -13.06376886514677    6.95151104480647   -5.11179761767438
C         -12.93105635991939    8.30028674358639   -5.29977173042971
C         -13.95231802132341    9.09152643955147   -5.86293010007440
N         -14.79069167031624    9.75156131298968   -6.28466206978360
C         -11.87714021820240    9.05781257927965   -4.75970170234237
N         -11.04262978677368    9.69782908799075   -4.29907961527518
C         -14.25377117388444    6.17405772634179   -5.44697157391122
C         -14.26707864791071    4.99413849814256   -4.66018024742808
C         -13.05871387986155    4.97501629978392   -3.82018109235807
O         -12.78022302788877    4.22195187123186   -2.91134074507862
C         -15.25153965878403    4.04155134565289   -4.77524201192314
C         -16.25981138012859    4.25667973616808   -5.72010588451073
C         -16.24425940624888    5.44444233666212   -6.49053457494968
C         -15.25422926396783    6.41263337206670   -6.36730244236423
S         -17.57377687474148    5.49967202747255   -7.60587454999075
C         -18.11815437816102    3.94010332311894   -7.04325728626192
C         -17.34986595056027    3.40983250494219   -6.06249004251812
Br        -19.64203288273774    3.16057532338362   -7.80835630230367
H         -15.99071102673256    9.25896334936301   -3.91830116112212
H         -18.66377888282330    8.44127285215817    0.24516332258175
H         -18.23338001669142   10.65891396748953   -4.78629131124146
H         -13.69842727394462    5.86687576905865    0.82670023994886
H         -11.66869893237336    5.88447646166798   -0.11128886280234
H          -8.72271708754911    9.22027654485271   -1.86461381178083
H          -9.75195372546167    5.65280668822113   -0.64905490149563
H          -7.74474799235468    7.34228087455416   -2.21167144112000
H          -8.05061725103953    4.22967666536388    0.10914584415015
H          -6.08138677209961    2.51474373758199   -0.25911589549007
H          -4.70206230725584    5.25762611932679   -3.76109493859637
H          -8.13121411926597    8.53731087678278   -6.22394373180989
H          -8.37045731229974    5.38700232599507   -3.92838070841825
H          -9.99018343475833    7.61340516725097   -5.26045410395651
H         -10.57517815929896    5.14510827494425   -3.51137631133289
H         -15.23362256660329    3.14620441168837   -4.17453289847712
H         -15.26941794904653    7.28894746953991   -6.99281937975186
H         -17.53702330721652    2.45556894344125   -5.60551127569401
