87
 SCF done       -191.154564621123          0.000864752406
C         -13.28119125617405    1.39865073887854   -1.36538415141707
C         -13.32896963271319    0.35412228767248   -2.25195443053224
C         -12.25522408798442   -0.09662468793822   -3.04736649091524
N         -11.42653900373505   -0.52515856579041   -3.71784234677440
C         -14.47562999512405   -0.43537357292759   -2.48375675083905
N         -15.37153245624116   -1.11145879734614   -2.72373762378596
C         -14.37332720644111    1.81923698818182   -0.49644601875607
C         -13.92014585298418    2.88180037554849    0.32381204692127
C         -14.72014312395107    3.49346303300126    1.25727549697271
C         -16.03428209952291    3.03252911210855    1.39102389980213
C         -16.48072706152835    1.97228211979618    0.56605990779037
C         -15.67052783106014    1.35502873156276   -0.37874684575302
S         -18.13767709642770    1.56388154313469    0.89127109748216
C         -18.20729359581449    2.80383083482018    2.11464740159478
C         -17.05010929743333    3.49028520189379    2.27309220540936
Br        -19.80046524851991    3.07743522506575    3.06404578238524
C         -12.52053963079341    3.19119666724699   -0.01010504585739
O         -11.84580757547231    4.09794415198117    0.44427220468000
C         -12.13579904428281    2.24236348893598   -1.06661245580169
C         -10.96632892744663    2.24560565437672   -1.77895616720475
N          -9.80314794762854    2.87472808133867   -1.53123376148745
C          -9.24718670491652    3.32086748909518   -0.36826309070048
S          -9.73833719773743    2.78956656299557    1.19599153754790
C          -8.37604376858947    3.59682186330402    1.89139407772298
N          -8.23420332099277    3.53667283688023    3.28424101736386
O          -7.29158201706520    4.11659811074522    3.78616299073750
O          -9.07574485764661    2.89528101342078    3.88888617028254
C          -7.59048259337362    4.24673540459264    0.97526796021869
C          -8.07910555057234    4.10389308126542   -0.33311410884849
C          -7.50799952841822    4.67287239699308   -1.51849455387291
C          -6.22332242586361    5.04397256182951   -1.68409518694126
C          -5.73058238873358    5.46613013649988   -2.95143846810653
S          -6.82522199290727    5.79348912691353   -4.27760625182051
C          -5.50326901147401    6.00815095660523   -5.40096869328983
C          -4.30008472303671    5.85323227002164   -4.77002994112728
C          -4.42950706168587    5.56791551757502   -3.38574524717030
S          -2.94748482616155    5.31803444494638   -2.50223287964758
C          -1.85946589186163    5.46928356809116   -3.90113455521393
O          -0.68383664913858    5.29850523418650   -3.83748947198237
S          -2.68486774914611    5.87924639256778   -5.43278472974746
N          -5.74966990526747    6.35234152548587   -6.71703523268371
C          -6.95554932125140    6.06394216332209   -7.29646228632960
S          -7.84731801340518    7.28492119612400   -8.13838467547548
C          -9.11369097773395    6.13495268231670   -8.43009456232195
N         -10.22527261438871    6.56685812485916   -9.17606752100669
O         -11.11555165474062    5.76585728345828   -9.37165859614530
O         -10.20024947509956    7.71859625249293   -9.56679248471963
C          -8.86026305612270    4.89689081281520   -7.91443467644288
C          -7.60594539860944    4.82215315100405   -7.26843252111941
C          -6.95243789822961    3.62272962736101   -6.83264310863429
C          -7.41289711996798    2.36533959925368   -7.02783109990888
C          -6.57791453131710    1.21547949153698   -6.93665431445951
C          -5.42227526240872    1.03709420960037   -6.24388403540441
C          -4.86926059669464    1.66047795162030   -5.06764698709660
C          -5.57057791145946    2.15333083280080   -3.99393438198259
C          -6.95567818322674    2.33940422617571   -3.92209757169182
N          -8.07166022987462    2.54042225396045   -3.72574555113383
C          -4.96708550579015    2.39620034710730   -2.74201181967590
N          -4.52867233643942    2.57098673561115   -1.69563042213410
C          -3.43677960291500    1.41051605630200   -5.07117101463961
C          -3.13970781125904    0.46446721151957   -6.08557771677175
C          -4.39261591944385    0.08196057870533   -6.76691708526905
O          -4.56238625954198   -0.76683343292272   -7.60593163847035
C          -1.85687551162492    0.04643286021100   -6.34242054874113
C          -0.82335208849015    0.59980441359719   -5.57600487657957
C          -1.13147326353571    1.55115561431481   -4.56971323957428
C          -2.43117199031211    1.95849075868052   -4.29916376398909
S           0.29123151689147    2.11819051426586   -3.75780196656409
C           1.27207839063929    1.07889071829043   -4.75384191911491
C           0.57078519283058    0.34641371861415   -5.65532795729871
Br          3.12936086741953    1.05701732637199   -4.51858606246301
H         -14.34366913234560    4.29901881531748    1.86776448239702
H         -16.05942027908401    0.55337707198313   -0.98379483400121
H         -16.91732933384261    4.28671090288403    2.98229729619462
H         -10.94260473114311    1.70036291587543   -2.71464953632779
H          -9.16277594266102    2.88555919232656   -2.33899484360732
H          -6.72349638881358    4.81752181240809    1.25133007471278
H          -8.17439776087335    4.77120199024887   -2.36737189920040
H          -5.49340353240073    4.94402508623251   -0.89493558803136
H          -5.23996251968111    7.14808149254790   -7.08147174500723
H          -9.55022288805199    4.08058240271928   -8.02225436179049
H          -5.94316002221607    3.75245835702784   -6.46318117659371
H          -8.39454339763319    2.20920814179863   -7.44946817493918
H          -6.81114273958139    0.41902982737045   -7.63805323210195
H          -1.65179741543626   -0.68105814895093   -7.11182742494609
H          -2.62440665588477    2.67872897423256   -3.52138572444339
H           1.02009544145255   -0.34197121926543   -6.34743820385203
