134
 SCF done       -227.460154005420          0.000628085806
C          -8.91192639550520    2.97690064263514   -0.13709558105525
C          -8.23852853583441    1.77449204208161   -0.13375160661736
C          -7.04642617979373    1.53956115494395    0.57730575444741
N          -6.08220215223755    1.27452211609067    1.14384182018221
C          -8.61609670780765    0.60733080768104   -0.82545698847698
N          -8.82211305107277   -0.38984939474710   -1.36088204834923
C          -8.46069687820905    4.19464313844040    0.53506542312354
C          -9.40868570153396    5.22002881068091    0.29930855033012
C          -9.25957895232449    6.49289022301088    0.78980286626686
C          -8.11767666926640    6.77049070154291    1.55060589731934
C          -7.17700358781304    5.74104198435716    1.77988909154548
C          -7.32852912637623    4.45129942504863    1.28322764450881
S          -5.83899201261261    6.29930207575254    2.73927866487239
C          -6.55389007186580    7.88763848313502    2.81652545747526
C          -7.73258787230243    7.99652810421509    2.16012807997670
Br         -5.67475763083109    9.25336549572612    3.75624587639375
C         -10.51009942510928    4.68181828189473   -0.53060063432984
O         -11.48973041156384    5.29304692458120   -0.91241797861429
C         -10.16060284574855    3.27407382068385   -0.78384605968206
C         -10.93299095056750    2.38464450678979   -1.50610002912372
C         -12.15826802500898    2.65171226414774   -2.10072869553845
C         -12.85537245465469    1.66819189368587   -2.78518874609853
C         -14.12119518484189    1.76373303976556   -3.39983607144373
C         -14.55156805652469    0.59936944674046   -3.97717130928238
C         -13.63811706061489   -0.46176204400581   -3.84639110187648
S         -12.21478931591869    0.05391488665188   -2.97569049411314
C         -13.72866300912697   -1.77763968155621   -4.28152435250509
C         -14.77664042986396   -2.44325263400979   -4.94600658938868
C         -14.51610027188483   -3.76211936405235   -5.19070055228784
C         -13.25441775010781   -4.20410911317954   -4.72838479973315
S         -12.40319433243158   -2.86634506855344   -3.98044488624257
C         -12.70677128326652   -5.45104102063303   -4.95291069375237
C         -11.46062367462106   -5.93460611715829   -4.53784986544783
S         -10.67271715205618   -7.11604205843552   -5.55855979513085
C          -9.19086005241006   -7.04161042275977   -4.66710436519221
C          -9.32672437345786   -6.19986311465269   -3.54949796727788
C         -10.62529439968453   -5.60202203231756   -3.45000560162018
C         -10.98295230463718   -4.88481887234366   -2.28928502515690
C         -10.01752311444644   -4.67945595635114   -1.34718827079903
C         -10.08590407516174   -3.97446015757822   -0.04707848401847
O         -11.02439389613991   -3.43185108970205    0.47948610778425
N          -8.81604470083998   -4.08682150537247    0.50130026951373
C          -8.44797456666601   -3.50380171488799    1.77387254083748
C          -8.17858903706552   -2.01017411023660    1.64123870579551
C          -7.93196003101371   -4.80054601411644   -0.29150016226457
O          -6.78953852098125   -5.05803276126645   -0.00395445522678
C          -8.70419809805216   -5.18987718642652   -1.49350329800736
C          -8.34785919933866   -5.96248436674738   -2.55900603834112
C          -8.03016839444447   -7.74451096804586   -5.06641757585160
C          -7.95934736794367   -8.57605471381113   -6.13125384279900
C          -6.74323314792414   -9.20805988909636   -6.57016023885747
C          -6.45879982108214   -9.24425530282964   -7.90935686883027
S          -4.84176957927032   -9.67154231104488   -8.27986354391152
C          -4.50225810027560   -9.86470108090120   -6.58400000343267
C          -5.62734054908885   -9.66374564719377   -5.77207887022231
C          -5.56045631793103  -10.05048913258721   -4.40654091897447
C          -6.84834101117406  -10.33012883032889   -3.67214679375341
C          -7.60467475181692  -11.47773902915904   -4.34700080003282
C          -4.32578179659217  -10.32104153964115   -3.83369787615399
C          -4.19770183271263  -10.76940557965433   -2.40079953814627
C          -4.32147200739182  -12.29153753816201   -2.29829815162835
C          -3.15073335668852  -10.29055117829342   -4.62724010965033
C          -1.77087552771648  -10.50193043546448   -4.26470989502085
C          -0.97195214257414  -10.62631107930830   -5.35751989426161
S          -1.78389504329423  -10.44042907237288   -6.86592305424893
C          -3.27659811399784  -10.17987281730783   -6.02186481197347
C          -1.17580102151881  -10.48707600525899   -2.93086487325160
C          -0.33550162109579  -11.42623467583679   -2.49193418306941
C           0.37362265292499  -11.33819259744941   -1.22273863155291
C           0.94829992452828  -10.16273306174762   -0.84634791831580
S           1.85052890435874  -10.23975194077900    0.61561227662960
C           1.44780082497736  -11.92169085512590    0.76858444418770
C           0.63548270073243  -12.39367860414294   -0.27333502537922
C           0.16579038829157  -13.73034539106012   -0.22944774222350
C          -0.86483702508308  -14.15281851292127   -1.24643158640185
C          -0.28014914580099  -14.87950690596286   -2.46014352772279
C           0.59806411859640  -14.58584193418352    0.77403890205978
C           0.24641346834664  -16.04806108264921    0.77149112483023
C           1.39111052715052  -16.86709076809611    0.16553876021520
C           1.42557892516480  -14.10471653614371    1.81988398592383
C           1.89197091514705  -14.75150442500825    3.02338931226029
C           2.58250075951579  -13.89616662460556    3.82324997463892
S           2.74452023894423  -12.29888073022883    3.20295941432510
C           1.81885196818761  -12.75685270599149    1.80913520318296
C           1.69762462382031  -16.13418772649602    3.46452885231628
C           1.27269841655378  -16.44496075545500    4.68083566126726
H          -9.99841091386578    7.25370614085818    0.59227883480040
H          -6.58137479174069    3.70220463343741    1.48483069234484
H          -8.30822572892382    8.90245953660597    2.10569591750315
H         -10.55881181803087    1.37357462561648   -1.61320469850112
H         -12.58881290056983    3.63890223994636   -2.02171592954172
H         -14.68069176546040    2.68221789390673   -3.39178457142734
H         -15.49304003467094    0.48586881604279   -4.48459151227952
H         -15.68687429760855   -1.94293643117224   -5.22314877938323
H         -15.19706762441879   -4.43173286174650   -5.68601067085879
H         -13.25927418985198   -6.09057485921244   -5.63159131010740
H         -11.99038468538275   -4.54130971162271   -2.12704121314834
H          -7.55349520111474   -4.02851697340465    2.11749016201692
H          -9.27242571790931   -3.67664461784675    2.47112680586269
H          -7.36731427668013   -1.83049242709107    0.94003701754249
H          -7.90291929339249   -1.59594231868635    2.60691971607720
H          -9.07046467556613   -1.50416355761662    1.27984863318602
H          -7.36073379998609   -6.39099785057717   -2.62710514810374
H          -7.13561507479579   -7.54881449561778   -4.49151955872943
H          -8.82533631764022   -8.68878628725080   -6.77205452457002
H          -7.11468038678126   -8.95130488639686   -8.70664618324298
H          -7.49712603579919   -9.45638614099822   -3.64731610265237
H          -6.64773690626941  -10.61313306339761   -2.64262077682304
H          -7.93280675191987  -11.19520692370440   -5.34409865974300
H          -8.48125261605004  -11.74164049753186   -3.75954514409145
H          -6.96870311404819  -12.35607818724066   -4.43508912245730
H          -4.94478508739235  -10.28856980308037   -1.76937131036843
H          -3.22300715235914  -10.48513193718053   -2.01471701836337
H          -5.29831170016176  -12.63003790294898   -2.63355628914527
H          -4.17855447238538  -12.61106584270754   -1.26849183497157
H          -3.56470587945173  -12.76860811337770   -2.91751318983650
H           0.09037063141820  -10.77548141942535   -5.35813013237218
H          -1.39823737911057   -9.62512828420886   -2.31410187328768
H          -0.12912900799298  -12.28334730359553   -3.11568703337937
H           0.92673069750421   -9.23817562386954   -1.39010787719296
H          -1.38871844834203  -13.25741856998800   -1.58202143147205
H          -1.61189270835438  -14.79292763012492   -0.77300059689423
H           0.61131100441007  -14.37238346634849   -2.82327766328299
H          -1.01291161717629  -14.91598152734616   -3.26427309081212
H          -0.00618729870151  -15.89993180775670   -2.20967631250827
H          -0.65958864773297  -16.23718122022797    0.19850701488588
H           0.06140704364800  -16.37574568955832    1.79566328911603
H           1.52531808647149  -16.61989260912675   -0.88422152759494
H           1.17982441492155  -17.93145760331845    0.24624852644015
H           2.33094437377902  -16.65579742507732    0.66973092158143
H           3.04147195435195  -14.13393614250262    4.76322086009922
H           1.96952311296990  -16.91923257111854    2.77420921072094
H           0.98652489643448  -15.68792973109372    5.39187029253076
H           1.17533994895253  -17.46783605088607    5.00241134673342
