76
 SCF done       -158.374237531342          0.000844987153
C          -2.53255829160405    1.62084474476935   -2.84456450101578
C          -1.93714749427843    2.37625020711375   -3.82253203410036
C          -0.67526970193338    2.09008685426375   -4.38249549923462
N           0.34322451557872    1.90400663337868   -4.87854035644788
C          -2.47779481619765    3.55735610812367   -4.37201112967910
N          -2.84140787085324    4.53894149294555   -4.84474517659194
C          -1.93717549441561    0.46466449256725   -2.18319886183460
C          -2.79895351346312    0.04897219756314   -1.13889373733148
C          -2.51485653468647   -1.01960388970051   -0.32522808922275
C          -1.31926785608405   -1.71115865140407   -0.55086422713054
C          -0.46617966094290   -1.29070665071074   -1.59804303046757
C          -0.75512486489049   -0.20977233459670   -2.42248168309815
S           0.95155800537250   -2.28961648648247   -1.70777744975888
C           0.38696300437495   -3.24451988413466   -0.36325607769480
C          -0.80120590214920   -2.83810846061504    0.14384034952253
Br          1.41931467116532   -4.68681556595032    0.24585257947828
C          -3.99758856183740    0.90957378623995   -1.12657221775116
O          -4.97974838880912    0.76666822930932   -0.41787218763737
C          -3.81053661343120    1.87828544575635   -2.21381085414741
C          -4.76490619449682    2.75619202634989   -2.67159678932130
C          -5.91938870674107    3.19720717923399   -2.01559717578884
S          -7.18185145318103    3.95159106863271   -2.98902456940902
C          -8.17863300529342    4.32794954903924   -1.62363008180951
C          -7.54017892711503    3.91971708610764   -0.45257542548891
C          -6.29189318566667    3.27586146383927   -0.67788425906120
S          -5.56357303060400    2.87973124365231    0.82814709579896
C          -6.96725150444293    3.58214463370585    1.61274334021769
N          -7.88490315371318    4.05252249921548    0.85602755249610
C          -9.44130606411945    4.94943062289821   -1.78165769292968
C         -10.23406187161245    5.28295424606468   -0.73494421599111
C         -11.51674003135331    5.88564181211058   -0.89587065148029
C         -12.32406258969936    6.25081082768892    0.11659961206610
C         -11.96253137294197    6.08578077354010    1.55993991571581
C         -13.68689119391421    6.86089505081087   -0.12012075827380
N         -14.03793223774073    7.11311090001066   -1.49014962644480
C         -14.42445358987908    6.11989116483279   -2.32978187725301
C         -14.50800797485851    6.24481931016729   -3.67132998320206
C         -14.96718254469013    5.22067225895737   -4.54899695304737
S         -15.10275649125852    5.55212868429608   -6.25048814866995
C         -15.66323653101132    3.93875093004000   -6.59117190515970
C         -15.73056062905997    3.20406531265400   -5.41935617055735
C         -15.34062599838643    3.92360445442189   -4.27847838792822
C         -16.17089097207311    1.78230282256713   -5.33483554407434
F         -17.42359394670882    1.58812572961162   -5.79426318318781
F         -15.38317774855998    0.94237544173993   -6.03762259855662
F         -16.16544880008563    1.32346237615750   -4.07544540200358
C         -15.96266643113068    3.60960465855058   -7.94273793529787
S         -16.46640225310300    2.04585157860484   -8.54359429359995
C         -16.58307842450980    2.56936982061641  -10.17113876963328
C         -16.25091681913642    3.89755452307682  -10.28075355240544
C         -15.90181538340174    4.46914611759598   -9.01799491926351
O         -15.58220961237833    5.77444191841881   -9.14793288040660
C         -15.72435307662197    6.04169198141470  -10.47565706788541
N         -15.45264307397623    7.36205673773455  -10.91003356504281
O         -15.59489545554234    7.57977235223478  -12.09858957048485
O         -15.10541523724555    8.17392229769409  -10.08052695342762
C         -16.12252322945794    4.96227284308656  -11.21579137208606
H          -3.19228515781955   -1.31421387758252    0.46084437832844
H          -0.07624876501753    0.06778127777715   -3.21136103563579
H          -1.29407721944642   -3.31319631090138    0.97228712650794
H          -4.64157488581346    3.15399192162269   -3.67161833974833
H          -7.03503535629722    3.58443798764514    2.68338290500190
H          -9.75677487463140    5.15049363698822   -2.79686792481830
H          -9.87529453600104    5.07798993053430    0.26221949293517
H         -11.84217507227012    6.03677562673965   -1.91708064849752
H         -11.64612446089846    5.06522726995692    1.76659316852424
H         -12.80828462746188    6.32310478673154    2.20007682558802
H         -11.13660510470688    6.74575380567490    1.82230151119232
H         -13.74915129461298    7.80590590907986    0.43093798475692
H         -14.43926968153630    6.18641072398999    0.30782668639135
H         -13.63259397387954    7.93281453608342   -1.91788118293273
H         -14.71623887753814    5.20266489052192   -1.83928897593439
H         -14.22289503308510    7.17747409322489   -4.13767658490112
H         -15.33510975383174    3.48975913902233   -3.29630058524952
H         -16.88407962488493    1.88074065641487  -10.93291774474615
H         -16.29350758505380    4.95102142849708  -12.27222810950721
