97
 SCF done       -190.870053856410          0.000994259651
C          -7.62961763564646   -3.35864963392989    2.08100187875836
C          -8.71158249799358   -3.68402727119458    2.85789849641946
C          -9.09854819719290   -5.00570785722277    3.15677712887377
N          -9.45393763627568   -6.06339499326023    3.42813754537515
C          -9.60068936649740   -2.74119343391693    3.41550522607131
N         -10.38305693539334   -2.03471864854897    3.87008694797602
C          -6.76011143738731   -4.29812567343118    1.38312850518952
C          -5.87322413293903   -3.56447438995832    0.55799520250932
C          -4.92564317526464   -4.16917114741731   -0.23091887104787
C          -4.85180164146330   -5.56591015059588   -0.20802876330362
C          -5.73956374470545   -6.29014721554581    0.62202803702187
C          -6.69697292977279   -5.67821939141843    1.42231702139579
S          -5.46727054978091   -8.00272631648444    0.50704468385454
C          -4.18373252775530   -7.72534253560749   -0.64009550687200
C          -3.96803468243928   -6.41934770790490   -0.92399316562203
Br         -3.24749160439949   -9.18569934810852   -1.35316353995641
C          -6.12277349023922   -2.11839160161911    0.72502074011190
O          -5.46740934911443   -1.22104128898815    0.23671522085056
C          -7.22268867538450   -2.01984614290138    1.71464556145633
C          -7.59931933997825   -0.85619925381072    2.32152505412835
C          -7.32771469944585    0.43686209638845    1.79649484082034
C          -7.03767568264836    1.52235129078186    2.64917772939692
C          -6.63632331245875    2.79527703231248    2.11790788192892
N          -6.26402379595233    3.79527370634636    2.92787566234515
C          -6.29764192895786    3.59618747121147    4.23372934069218
C          -6.72745091538754    2.34157541829594    4.76420920434431
N          -7.06838618934110    1.34430087296951    3.98122495510231
C          -6.77551060711845    2.16619309295372    6.17078184868790
N          -6.79281404768393    2.07104870002890    7.31185887007240
C          -5.89084613549396    4.65154211331114    5.08171919429367
N          -5.55491387709532    5.51119575513082    5.76225992419415
C          -6.57474253422582    3.04797602675264    0.72027877913165
C          -6.99454285242812    2.00868178589910   -0.12734800797798
C          -7.36168135356168    0.71928175336474    0.41070816857702
N          -7.77580389461146   -0.10416000735711   -0.54745740123655
S          -7.67283238914484    0.62773321735568   -1.97011920193037
N          -7.12646686539955    2.04998962009959   -1.45104970580671
N          -6.09515781014025    4.27187247287725    0.38031303051423
C          -5.81537280941173    4.89906131388459   -0.77473142382127
S          -6.19001486147277    4.28491577644593   -2.35262703844136
C          -5.47407211985968    5.71273066005417   -3.04521259459861
N          -5.46370731535111    5.82840782501127   -4.44088129405206
O          -4.95132578740246    6.82089288838860   -4.92714947858067
O          -5.97134621886619    4.91839466542306   -5.07286210135687
C          -4.97168524245695    6.59296938028139   -2.13167981719807
C          -5.15376143581726    6.15600582815267   -0.80104729274346
C          -4.71152653099835    6.85656161663664    0.35136684362547
C          -3.91088793409091    7.96603752202201    0.30851650221956
C          -3.44189986729327    8.65746491009507    1.42647835798681
C          -2.56609656230954    9.72194247394881    1.32666647160451
C          -2.00690222790557   10.49679036904574    2.36323522358702
C          -1.14254667305052   11.46826908104774    1.93459901804567
C          -0.97751678590963   11.50397728292497    0.53937620868484
S          -1.96126864060765   10.27732834610547   -0.22087862911112
C          -0.17109418435957   12.32801412165469   -0.23584810077821
C           0.69754490538590   13.36120438301674    0.16367927523330
C           1.35359106494941   13.95678850907754   -0.87605336503995
C           1.04195564101457   13.42843009573241   -2.15126275787555
S          -0.13352005677520   12.13825384784382   -1.96701111309989
C           1.57295088970477   13.85147318490404   -3.34823043592167
C           1.31268665832207   13.37463165169602   -4.64517152929801
C           1.91203073766035   13.88521509131577   -5.81012435805782
C           1.41842612383129   13.17929449329571   -6.92627355106610
C           1.67620668085809   13.29010087371944   -8.28068562685804
C           0.99927332826148   12.42278543931524   -9.14429795540687
C           1.03063584348946   12.28737608908617  -10.53027011498881
C           0.13884619825151   11.24494302915667  -10.91695155843313
C          -0.44576515475359   10.73078029032303   -9.76808678249775
C           0.05959678687159   11.43600290960559   -8.63675355686427
C          -0.20040504142942   11.31774226443057   -7.29702699445118
C           0.47765646064579   12.19271921331887   -6.42269740291839
C           0.42373768159524   12.32047789539031   -5.04879250794083
C          -0.13269178357947   10.78356409444130  -12.25727379159346
C           0.41236223853409   11.27121186207383  -13.36841463489830
H          -4.26147261912130   -3.58368222292892   -0.84720382812325
H          -7.34574862049770   -6.27181396723124    2.04468364777035
H          -3.21632920804283   -6.06974428808529   -1.60793438233642
H          -8.07907186034553   -0.88081396461495    3.29167276149883
H          -5.86736222194652    4.79026197957512    1.23582383187232
H          -4.50549656312709    7.51643738859765   -2.42095080089412
H          -4.99832752140975    6.48683188011877    1.32776818317273
H          -3.58222614301979    8.33591630782016   -0.65308575805365
H          -3.75476365028677    8.35053516426595    2.41514238845331
H          -2.25311151998176   10.31643163082983    3.39458113453655
H          -0.62476442532710   12.14747463676408    2.58805368094636
H           0.81848596126808   13.63844941790428    1.19537626779757
H           2.05699774853105   14.76323189318808   -0.76305914811873
H           2.28844796074244   14.66272859626528   -3.27998013702590
H           2.62914725337620   14.68489220436797   -5.84226317323263
H           2.37366553630519   14.02141845717421   -8.66409030251028
H           1.63040569301509   12.87489355415457  -11.20079394097680
H          -1.16445803541549    9.93291298157336   -9.72682550109210
H          -0.89768690485415   10.58826826152220   -6.91077632832394
H          -0.18543842055749   11.72575028510612   -4.39545472595483
H          -0.84573127723653    9.97138047346468  -12.32221710167208
H           1.12493384765324   12.07798626233803  -13.35438575382269
H           0.16044942535528   10.87690537323025  -14.33727562263686
