103
 SCF done       -200.057798085856          0.000607533984
C          -6.68607916085691    9.27047291331302    2.48706207145034
C          -5.35095143092246    9.18152528726199    2.19307585858232
C          -4.37648162501162   10.07204888673373    2.69044897096139
N          -3.54546315333517   10.77094787223413    3.06251681079289
C          -4.75931307389391    8.16025322401306    1.41756440111892
N          -4.19833023782945    7.34400825028045    0.83750526436327
C          -7.29459339340728   10.22422937337756    3.40502607845667
C          -8.64142008748853    9.84317764135636    3.62130656224141
C          -9.48472331863536   10.54411393264538    4.44897344963297
C          -8.97705613075495   11.68159333655604    5.08525090533970
C          -7.63169316935477   12.05901669159867    4.85651724146761
C          -6.77646103726766   11.34515775241113    4.02621307523773
S          -7.21479076194777   13.50071122039716    5.73121782614881
C          -8.82997131872345   13.57633213559258    6.38420381220723
C          -9.64127173273692   12.57389848351975    5.97058054842699
Br         -9.29242644106305   14.97209489499051    7.54786317861577
C          -8.94854301817851    8.63486472108668    2.82925294483916
O          -9.99405401537841    8.02218663613252    2.84028633346128
C          -7.73041023120183    8.37280192553127    2.02344143888984
C          -7.63384782402260    7.59656637215555    0.90169898352126
C          -8.55948745742958    6.70108792030926    0.33033430418210
C          -9.68256362746579    6.06154786122922    0.79047219513027
C         -10.23616838001272    5.22500546395813   -0.22992646684696
C          -9.48109499774232    5.30623138722939   -1.36837712584981
C          -8.33546511818685    6.23995675420664   -1.08663172749685
O          -7.43986293091110    6.55785380663997   -1.82032035451875
C          -9.70324216278253    4.66619785137701   -2.60527896441947
O          -8.87990685635420    4.88621353481820   -3.66243716646543
C         -10.69250041768281    3.78046543723890   -3.00739087239908
C         -11.88883389698762    3.05613130763203   -2.56871124259214
O         -12.45521328534340    3.03292688644266   -1.50733493242036
N         -12.27507858141286    2.34708290033685   -3.70466917038456
C         -11.46773645168285    2.53317750056879   -4.82204656105292
O         -11.63831785347636    2.01171974108285   -5.89657604200038
C         -10.43916766264754    3.46606667461428   -4.36061160296008
C          -9.30461063868722    4.17581963152962   -4.73320744771464
C          -8.60291539639922    4.27931898061163   -5.96140964392790
C          -9.00438444013020    3.61436066764329   -7.06947078405563
C          -8.33074251521050    3.66341006910602   -8.33721313923603
C          -6.98725617845741    3.93380820945102   -8.39529356433448
S          -6.30194322683476    3.85655547900989   -9.95584499788938
C          -7.86215672996576    3.46563049095019  -10.61649906210694
C          -8.87989137943291    3.39901531235406   -9.65512588636724
C         -10.20379658066479    3.17061724330912  -10.10649482013657
C         -11.33975009221518    3.29571770088059   -9.12348133545994
C         -11.50335183288693    4.74369076798320   -8.65440572833026
C         -10.45519394820117    2.91509495014400  -11.45465162355875
C         -11.85819458127479    2.63229564571951  -11.91277249803893
C         -12.26092994524050    1.19720121751696  -11.55693308291404
C          -9.41014428731649    2.91538834150671  -12.41284209289005
C          -9.39035465345934    2.75718421564851  -13.86108632515528
C          -8.14526030702211    3.06605988594245  -14.36526251027624
S          -6.94246830691291    3.42636754597810  -13.21794228173231
C          -8.12391625166883    3.25462305204442  -11.95758843047330
C         -10.29916877249540    2.30195698302990  -14.88425258483368
C         -11.33352137202190    1.42643078599852  -14.91256552567366
C         -11.83248001911755    0.98503484683688  -16.16637889388982
C         -12.84636707420409    0.10841515591267  -16.41184843786518
C         -13.89037399969173   -0.41138357887830  -15.55916674429660
C         -14.50589176716913    0.28260715152437  -14.54985702583178
C         -15.54241339853190   -0.23689906311529  -13.75081019594170
N         -16.36390855903128   -0.63380841818853  -13.05394493266800
C         -14.23693834979279    1.64595844904000  -14.31276399006895
N         -14.08920495877135    2.77251500572259  -14.15021725782372
C         -14.35086805526670   -1.66458344430871  -16.14326447082438
C         -13.79060544486507   -1.78603147895984  -17.44071275327071
C         -12.88956160836186   -0.64066226649007  -17.69473704438378
O         -12.27493214621958   -0.39169710580394  -18.70637115043872
C         -14.08361679689527   -2.84077331487709  -18.27015925735352
C         -14.95918078016645   -3.82281546907157  -17.79374097501189
C         -15.50298562887022   -3.69630570670165  -16.49280917695812
C         -15.21534823637249   -2.62510289689859  -15.65566431679265
S         -16.55343653156051   -5.02516532535035  -16.10721865311531
C         -16.25691089027955   -5.72102612591707  -17.67856647855547
C         -15.41304484676471   -4.99832542706695  -18.45257139428927
Br        -17.08736598966476   -7.33613538769920  -18.14641459561079
H         -10.50518065148114   10.22759683895705    4.59766078990825
H          -5.76139705443785   11.67431903838711    3.87885598615408
H         -10.66644275605215   12.46758204143280    6.27487319341451
H          -6.73834404032979    7.71070790032033    0.29752963265358
H         -10.10281950524390    6.15804967148093    1.77430352356109
H         -11.12048984051970    4.62414033796772   -0.11000344943403
H         -13.08429904484124    1.74244093672460   -3.71746705455103
H          -7.75619263152584    4.94920344817404   -5.96090283336250
H          -9.87589073827094    2.98593139051750   -6.98634868615946
H          -6.33971286410981    4.12492682446387   -7.56215268138603
H         -11.18117510234195    2.63711998312220   -8.27158405490768
H         -12.28008167668272    2.98869550854792   -9.56820471245059
H         -10.59771950300398    5.12264199890681   -8.18831444360842
H         -12.31240436432336    4.80539234926427   -7.93075718938081
H         -11.74576559879290    5.38394630179738   -9.50018318514283
H         -12.56046151449564    3.33031117718437  -11.45758205142603
H         -11.92986070626301    2.79472541027934  -12.98401796911097
H         -13.26183906051049    0.98268343917035  -11.92535495679981
H         -12.25889969454557    1.04532078227849  -10.48077928868510
H         -11.56064685760397    0.48047384515491  -11.98353007461844
H          -7.86466805920242    3.03939626826698  -15.40138571624506
H          -9.99034441336395    2.65661953055866  -15.86339440206286
H         -11.73388661418387    0.97036310454175  -14.02389390050993
H         -11.26258677405790    1.27173089610972  -17.04482956140355
H         -13.65375904150603   -2.90688443483082  -19.25727289184437
H         -15.64882162633191   -2.56681704708451  -14.67053093860701
H         -15.12105290533032   -5.28052689799208  -19.44758199949561
