90
 SCF done       -192.492661966331          0.000741417964
C          -5.13265111195421    6.30594757203121    3.72667351393868
C          -6.36753662091818    6.08299439536939    3.16781516297043
C          -7.37640712278551    7.06267076942861    3.05845146548220
N          -8.25307916251640    7.79780972932101    2.96898402712896
C          -6.80390888891349    4.85201062442300    2.64096366385562
N          -7.20634316980014    3.86779622494717    2.20274382098554
C          -4.62999291031067    7.58935950068855    4.19068435766753
C          -3.27818455256873    7.43382179767819    4.58634023914661
C          -2.52444141597667    8.47537813873096    5.06813096280938
C          -3.13135109408721    9.73244811340184    5.16051288239696
C          -4.48391744914604    9.87760890723027    4.76554135861361
C          -5.24694768103525    8.82381181670746    4.28090966415300
S          -5.03552172996937   11.51202659923361    4.96349599234607
C          -3.46434229820980   11.97490388214450    5.55965275759516
C          -2.57106461244462   10.95700892962633    5.61232363470773
Br         -3.14990858770774   13.75493177382791    6.05393554336603
C          -2.86367220056198    6.02849893526283    4.40489933131494
O          -1.78499725444421    5.55315069310884    4.67351481436573
C          -4.07137134055742    5.32945730176469    3.88890541937565
C          -4.21994058707392    3.98846845056225    3.68449558584863
C          -3.25724497079801    2.96268064414524    3.65766845026208
O          -1.91809289080054    3.17044930694039    3.72628321439251
C          -1.30213362558273    2.02374249304648    3.58764063229042
C          -2.20594697433159    0.99392876184430    3.39868689965267
N          -1.84228010709772   -0.33371138250148    3.06934890416926
O          -0.70672436912627   -0.67887330474653    3.33593456486999
O          -2.67613966043440   -1.03093329063021    2.52534579326523
C          -3.50440187444598    1.58852814582896    3.45534302084722
N          -4.72773887769076    1.00689539796217    3.37014017795101
C          -5.00608029229811   -0.32512840788960    3.58944209991208
S          -6.16861606427536   -1.12769853158346    2.58136598899243
C          -5.98833683445065   -2.59191000781219    3.50754609836293
C          -5.01478303877076   -2.46509546248046    4.47777096634588
C          -4.49296393483596   -1.15540906949563    4.56047321654537
C          -3.59260484949652   -0.73059817403533    5.67885479957678
C          -3.69294377750474   -1.72420744548808    6.83563984343608
C          -3.42193660994744   -3.13277131294504    6.29451254308254
C          -3.27544883252337   -4.12498188152117    7.44635838695268
O          -4.08923252617330   -4.95197251917682    7.72773241121422
O          -2.13841269022210   -4.00081029758794    8.15011369152421
C          -4.57007886062974   -3.56618046154617    5.38299063354929
C          -6.76243800019152   -3.76312842815640    3.21281883798657
O          -6.20921273663312   -4.96604590203758    3.54116897023090
C          -6.99119769333616   -5.94054260303658    3.11808568894560
C          -8.09089606893208   -5.41937552952514    2.48609190112715
N          -9.12232380049641   -6.15451925967846    1.86363132204492
O          -9.93838519213494   -5.52248628816080    1.20831923402720
O          -9.11996381952820   -7.35392521562149    1.99193356653395
C          -7.97825738694268   -3.98700904390319    2.57297967703979
N          -8.96741764427038   -3.17453259706252    2.07190345276103
C          -9.43468205950201   -1.96641131821448    2.42162682564179
C          -9.14367554780259   -1.10356524541015    3.43601068257577
C          -8.38487346149371   -1.18231586253579    4.65914262594338
C          -8.25521622590418   -2.26950038001447    5.48459091553558
C          -7.55433519968910   -2.20575052228566    6.70351762031465
N          -6.95694846171168   -2.16390950442078    7.68316053680828
C          -8.88729417244394   -3.50463758947632    5.24670839591814
N          -9.42858915623201   -4.50724132686801    5.10618493225598
C          -8.00662331815939    0.18639050131653    5.01220244729409
C          -8.79462632258368    1.08046996818367    4.24701570524118
C          -9.59518791168067    0.30560546138983    3.27416454398750
O         -10.40677636622016    0.71851751615912    2.48159386373419
C          -8.72845287677321    2.44276312621602    4.40745748223143
C          -7.78370540280549    2.94391104387767    5.31051150961163
C          -6.93373773314020    2.04509320038406    5.99439487230301
C          -7.05489567907097    0.66403248799045    5.88974570580605
S          -5.75764748622074    2.88712354559160    6.96225855224929
C          -6.45262593221855    4.41430731321216    6.48423840108618
C          -7.50037435192051    4.30078337175417    5.63496543981355
Br         -5.71836352608920    6.01255512280555    7.14561517564383
H          -1.49760167348789    8.32589588696088    5.36245643458296
H          -6.27422670849664    8.98312553141846    3.99926510039289
H          -1.55840569805382   11.06562794378779    5.95515469999313
H          -5.21936139115355    3.62639634190562    3.48873666653548
H          -0.22894602328525    2.00008658843564    3.60350436384647
H          -5.49190729084514    1.58173698779629    3.03707115730588
H          -3.85925039321065    0.27813614940792    6.00753908066667
H          -2.54950224837361   -0.69706880082833    5.34912087738627
H          -4.69011794651220   -1.70469599156345    7.27956230428804
H          -2.97394980247035   -1.44895712355774    7.61010223741203
H          -2.48346051569753   -3.12106974037692    5.72530565962262
H          -1.55162471525924   -3.31490963264782    7.80485302165991
H          -5.40208299323128   -3.90536153629100    6.00776997669864
H          -4.25442661307891   -4.42366585535384    4.78703308373912
H          -6.69919199167078   -6.95709013692013    3.29625039476097
H          -9.55129943270830   -3.69489176432698    1.40815835463635
H         -10.15341503684538   -1.57290304705075    1.70773305466173
H          -9.36559397558002    3.10115259615105    3.83976957101700
H          -6.41953182215670    0.01414000017441    6.46600259953532
H          -8.06704874244853    5.13513220291216    5.26298594128392
