92
 SCF done       -172.208019621770          0.000917144412
C         -20.25351955388065   -7.31664434949200   -4.35722531848272
C         -19.07480732438557   -8.02615134153290   -4.42524643560995
C         -18.98963808227912   -9.38309320571903   -4.79050600783950
N         -18.84933944727112  -10.48733252231056   -5.07656365348484
C         -17.78909307148549   -7.51755573891984   -4.15726319221802
N         -16.70302106888141   -7.19067332882704   -3.96934878243661
C         -21.57665603782035   -7.86084026854583   -4.66177479565946
C         -22.53397451482067   -6.82781748359735   -4.51955487564826
C         -23.87580265846636   -7.02693189517460   -4.72702898312771
C         -24.29680725671888   -8.31141831230554   -5.09075578339320
C         -23.33390646557810   -9.33599100134390   -5.23170130436888
C         -21.97419278897049   -9.13299748590995   -5.02396270535306
S         -24.06835494132121  -10.84642250963589   -5.68159264456108
C         -25.63863208547175  -10.08840866783410   -5.67182716815513
C         -25.61670275589262   -8.77388608197492   -5.35056702910542
Br        -27.15990507824998  -11.10620375084951   -6.08604180064769
C         -21.84678171141974   -5.58188412867421   -4.11196607416373
O         -22.37622990791949   -4.50444449654109   -3.91340072625494
C         -20.42215685760964   -5.93564079668162   -3.99334010582499
C         -19.43558450214248   -5.07854053294965   -3.54074734391262
C         -19.62980342914310   -3.75594296497333   -3.16559113937678
C         -18.62263346076853   -2.98300271388301   -2.61335408820791
C         -18.73194533866816   -1.65886509114547   -2.13636821544867
C         -17.59296539955055   -1.17911497231390   -1.55325288189072
C         -16.52912762528845   -2.10223821335023   -1.55095464847896
S         -17.00560636806545   -3.58828592168612   -2.34244940130650
C         -15.28024037733547   -1.98368960302722   -0.96211893399504
C         -14.79009121151293   -0.94095297506267   -0.14471222715770
C         -13.56741374611885   -1.19866044632827    0.39776976720708
C         -13.01711863467347   -2.45266014074714    0.02831818846065
S         -14.10502980522198   -3.26564944795873   -1.08724265917723
C         -11.88362470414027   -3.02506672577368    0.54413883347469
C         -11.35155623045030   -4.27955965012774    0.17999224028608
C         -11.50772608384628   -4.99145565141305   -0.98784636376536
C         -10.84943993860316   -6.23480672669326   -0.98785916116068
C         -10.19842443212026   -6.50062057547914    0.25152135641804
S         -10.34305932063935   -5.14680747072253    1.33710576092570
C          -9.57068852377713   -7.69373745057803    0.51347822225574
C          -9.54352691771483   -8.65591952105642   -0.50182903663305
C         -10.11277594065307   -8.35172895807372   -1.77280401539056
C         -10.77575790434976   -7.17573646071332   -2.02166278472102
S          -9.86384612137122   -9.65756528923025   -2.89790096958372
C          -9.08731960254918  -10.63215204127500   -1.65289079929718
C          -8.99879596940808   -9.95298677230112   -0.45951032215292
C          -8.65151026777987  -11.93487146499824   -1.97769982276865
C          -8.46116124016462  -12.96585183637318   -1.09597680043216
C          -7.99531237377441  -14.26692485802864   -1.41917557355948
C          -8.02122486301241  -15.14782362284451   -0.38161399697250
C          -8.53049649474158  -14.60262543180652    0.81766951507164
S          -8.89997382154488  -12.90566160035564    0.60351279415019
C          -8.80045491149956  -15.25493102893720    2.00631913101749
C          -8.52297144763426  -16.59341298756218    2.35597673180790
C          -8.99106695364284  -16.94849248767640    3.58550355148278
C          -9.68161042745838  -15.91943939772714    4.27208173797480
S          -9.65997053907597  -14.45715323878839    3.30491784001113
C         -10.31128257999491  -16.06814092363742    5.48619603061596
C         -11.08891948075019  -15.13540452036229    6.18304419111495
S         -11.86174651451884  -15.65499874052487    7.68307770956932
C         -12.60486949552279  -14.12631167432896    7.86508302510107
C         -12.26284544726179  -13.25701088131638    6.82548743545037
C         -11.41683985745821  -13.80853988386598    5.88278883791977
C         -12.96600567826773  -11.97499059785866    7.08509192199288
O         -12.93627806448987  -10.95662936173130    6.43971436013275
C         -13.73656030201184  -12.21961369865056    8.35551122244805
C         -13.49308669012271  -13.49653773237657    8.78301449933283
C         -14.56046740740893  -11.19046399337621    8.91673229305654
C         -15.30255735990352  -11.29980240013309   10.02065250024276
H         -24.58115422453954   -6.21925093147300   -4.60905308853623
H         -21.28140333923363   -9.94918297912776   -5.14155247142780
H         -26.49302772153780   -8.15395070496414   -5.29679830478906
H         -18.43047564454469   -5.46973871353166   -3.43835967234466
H         -20.61023058224734   -3.31514308911075   -3.27179113628250
H         -19.65122372497032   -1.10747182508212   -2.22302847479620
H         -17.49883054562198   -0.19687887541822   -1.12575457137385
H         -15.36250666733181   -0.05121616572526    0.04630473326260
H         -13.04614215067216   -0.53651491204173    1.06635837364294
H         -11.39114758144643   -2.50095581724826    1.35282455465790
H         -12.04487533206231   -4.61785997377285   -1.84049102862387
H          -9.11478217149691   -7.89522070127552    1.46950671620567
H         -11.23586710929532   -6.97560640402714   -2.97585375316457
H          -8.51699259487429  -10.35454268867446    0.41320496961792
H          -8.50761011486324  -12.15367258447923   -3.02749116635164
H          -7.66590144892379  -14.50748694836461   -2.41446852878541
H          -7.72195165951758  -16.17797842283729   -0.45464380166841
H          -7.98892009101387  -17.25434671095689    1.69733990106194
H          -8.87859761090274  -17.92724014572845    4.01770645989706
H         -10.22254804235739  -17.04538726673471    5.94432660565374
H         -11.05259235035754  -13.28905010598743    5.01662448135181
H         -13.89670330746926  -13.96816660065241    9.66019182544133
H         -14.55225486104864  -10.26412588509262    8.35582767772600
H         -15.34052654417305  -12.20920400506361   10.59601618119947
H         -15.90318916487169  -10.48123149646938   10.37616239256085
