90
 SCF done       -159.535359128101          0.000709195582
C         -11.20079937399809    4.34805382066827   -6.04118902291080
C         -12.20643656787822    3.46081307227700   -6.34495339495175
C         -12.88880884427692    3.43215263939903   -7.57438345110527
N         -13.47672255977217    3.35828836708190   -8.55880016770526
C         -12.62094755057952    2.43229414987393   -5.47909077381833
N         -12.97121272335792    1.56930657953021   -4.80621567399079
C         -10.68776016613677    5.39260840061416   -6.91451329229956
C          -9.59014278699027    6.02970204259773   -6.27904033708245
C          -8.94423704318371    7.11327249524499   -6.82282165075912
C          -9.41023774959002    7.60225043002591   -8.04706584101840
C         -10.47463709416380    6.93180400215523   -8.69533257673669
C         -11.11764392446790    5.82614260367696   -8.15491571810575
S         -10.90688395824536    7.71627329382535  -10.18333052672521
C          -9.71505028992412    8.95394733041967   -9.88380086009453
C          -8.99858720454151    8.76674820348678   -8.75065164289588
Br         -9.58345977856289   10.40643510544020  -11.06112479836623
C          -9.36437913765193    5.38448059352929   -4.98345395412358
O          -8.47401455249210    5.63133914607058   -4.17302042873458
C         -10.43906830509530    4.40650183777151   -4.81579388896535
C         -10.66454734739550    3.78166444318257   -3.61327371264574
N          -9.82736201652843    3.96927394828152   -2.58161234380643
C          -9.96494677163376    3.49897077293898   -1.31472353011835
S         -11.38375548776657    2.62980139316168   -0.81365350127482
C         -10.65605115698545    2.37644857654014    0.74040779466474
N         -11.39069837257784    1.67613420707509    1.69986196044489
O         -10.86934437444991    1.48551284065163    2.78504839605167
O         -12.50839556155323    1.30733284693153    1.37684338435115
C          -9.39962751929295    2.91622939562810    0.85110772761507
C          -8.99124334911340    3.58544298712093   -0.31260672331599
C          -7.68326717816482    4.18688459884693   -0.48866441124602
C          -7.43038323013618    5.32901860609298   -1.15069849325637
C          -6.10963348097950    5.71260647579586   -1.55455362001291
C          -5.80815204769426    6.75821893041095   -2.34512912856358
C          -6.77806251525708    7.82443150348898   -2.73290208832091
C          -4.49103499816699    6.73407445858097   -3.08469161590540
N          -4.56931786526200    5.66706338326964   -4.07413176530772
C          -5.27254445449267    5.79920470779862   -5.22495695438687
C          -5.97305993719344    4.77263587943681   -5.78591482074693
C          -6.61609381763371    4.78140347408053   -7.03324700477772
C          -7.66483476166622    3.92641405911287   -7.42719483510431
C          -8.30997109617833    2.88984433028127   -6.73356874031360
C          -9.34705260228302    2.22781474367315   -7.33632349263202
C          -9.77429124810180    2.57739557066571   -8.62912440079258
C          -9.16698241181787    3.59189532451650   -9.32650427011215
C          -8.09617190258268    4.28080495772394   -8.74536481380160
C          -7.32041331732850    5.37580636211458   -9.22429821736897
C          -6.28627009349617    5.60754069568136   -8.20045603908087
C          -5.07308648129770    6.13570102175095   -8.39795927068362
C          -7.55441270147734    5.98127752476203  -10.44394868800400
C          -7.10885099065404    7.16261114966398  -11.02594311154116
C          -7.50293071815364    7.58969210603206  -12.30849276071120
C          -7.04892313905576    8.82807843036945  -12.67021224489995
C          -6.27737572497335    9.45772486965180  -11.67661249815510
S          -6.11017608325226    8.40254283003798  -10.28899941580357
C          -5.72049522214177   10.72194993224710  -11.69477752110883
C          -5.78312245856774   11.67694740309423  -12.73815800719611
C          -5.15412375459890   12.84593164712180  -12.46428525208476
C          -4.54174228332021   12.89951191492409  -11.17177520758069
S          -4.82651068000852   11.36632992290816  -10.33360726356579
C          -3.85321521237914   13.91267589562787  -10.62339883858005
H          -8.11999685242916    7.58807947007158   -6.31420197175950
H         -11.93778510816982    5.36305700653808   -8.67718866918211
H          -8.22171640744382    9.42929338417050   -8.41533499443452
H         -11.52470003767330    3.14740482161688   -3.44326798465338
H          -9.00366657251596    4.55176745970971   -2.79956879122842
H          -8.81438384010635    2.84118056904692    1.74964935054371
H          -6.86202563358069    3.62727666403447   -0.05815346795142
H          -8.24401665292780    5.95344587093578   -1.48848573042775
H          -5.32366622965413    5.00946182397396   -1.30124153642602
H          -7.45099875462533    8.05979661320448   -1.91305366683979
H          -7.37760041443130    7.48168368417715   -3.57683713733066
H          -6.25500723047847    8.73225931711013   -3.02531221435714
H          -3.65286434681101    6.51263967293119   -2.41904501167800
H          -4.29968007476038    7.67526657679187   -3.60150723086035
H          -4.64519744995293    4.74854206699599   -3.65256431122739
H          -5.23957567278488    6.77829979935394   -5.68116538176197
H          -6.09838010546808    3.87727194375993   -5.18797564092219
H          -7.98591991610708    2.61537472775036   -5.74001037063817
H          -9.84876684788675    1.42242404999098   -6.81898006366856
H         -10.59792710882968    2.03759766427234   -9.07203257606218
H          -9.51214436024701    3.84439169021618  -10.31809114363873
H          -4.78263212357902    6.57724820878243   -9.33284983647494
H          -4.31487197151393    6.08476163764387   -7.63522301266149
H          -8.28283371228366    5.46770492794438  -11.06354897251686
H          -8.12289037643543    6.97266177351820  -12.93600755689476
H          -7.27160560533068    9.30304930964120  -13.60787922707501
H          -6.29781491543994   11.46700994893919  -13.65834035108592
H          -5.09824343150637   13.68584479227060  -13.13329213696109
H          -3.70450991303003   14.82979061187525  -11.16503250848608
H          -3.43285435687758   13.84358567857713   -9.63710451625013
