87
 SCF done       -170.992423315401          0.000675035288
C          -8.22819405451086   -4.73124115457227   -9.17261681619430
C          -8.65369294822453   -5.82387881633103   -8.43606778842315
C          -8.47025923711659   -7.15930595323415   -8.82232059471467
N          -8.33913647792018   -8.27955802375781   -9.05432108786104
C          -9.30880580349077   -5.77453233735933   -7.19285711224460
N          -9.81585226906573   -5.84820786924989   -6.16242468099950
C          -7.46957207474177   -4.81965702649052  -10.42073483742211
C          -7.21083168180121   -3.50780500067039  -10.88363782274723
C          -6.50119612040065   -3.25286252012357  -12.02852356513091
C          -6.01691497592586   -4.34910873142030  -12.75423318501790
C          -6.27254180830031   -5.65351271463531  -12.27923010618228
C          -6.99530742761815   -5.91122039022816  -11.11864913722260
S          -5.57557917167182   -6.86062372956289  -13.31946649469421
C          -4.96359577066631   -5.60851169989044  -14.36774669577798
C          -5.26209590864192   -4.35324019130874  -13.96017208069232
Br         -3.98743959177625   -6.07970760092314  -15.90075251343629
C          -7.80317016575879   -2.53788940739041   -9.93218595287898
O          -7.76057919061623   -1.32523813678780  -10.02452610581388
C          -8.41556080006838   -3.34988703189200   -8.87099071575414
C          -9.04775652801935   -2.82732088827335   -7.74549377468840
C          -9.28796943813687   -1.49437942671445   -7.49121080042211
C          -9.91523054682591   -1.07495821761261   -6.31523250125562
C         -10.35574914765540    0.20869862714169   -5.96845815232098
C         -10.97811284609599    0.27622070312514   -4.73995229413495
C         -11.01945342046457   -0.94879450405280   -4.07183679924168
S         -10.27413747584838   -2.19983839434266   -5.03231232489434
C         -11.52303641810795   -1.29195502435177   -2.80923278424191
C         -12.25036784269158   -0.55596749556811   -1.86799381982823
C         -12.56480458617128   -1.27681303082600   -0.73652075855889
C         -12.06345036668324   -2.58684410700889   -0.73283095598904
S         -11.22282106937202   -2.89700564709725   -2.22911392928070
C         -12.25140957308675   -3.58550472628249    0.22646593018776
C         -11.55476694676760   -4.78033803815790    0.23528783401351
S         -12.12715035671353   -6.25133385130565    1.04111162598396
C         -10.86419782093739   -7.29004515904604    0.35359318734537
C          -9.91909808200560   -6.45194546924680   -0.30276058731300
C         -10.33565210182419   -5.10751511424126   -0.37940665750385
O          -9.38981843147692   -4.33912739258688   -0.93476990362618
C          -8.35836945651962   -5.17261475763604   -1.22183483938405
N          -7.23667312736835   -4.63398520621329   -1.87118882240568
O          -6.31856851538108   -5.40201938724770   -2.11269576212632
O          -7.25582847640352   -3.45231192680279   -2.16346290589092
C          -8.61520356559327   -6.47045563821868   -0.84251478973970
C         -10.98406005404706   -8.65691904537901    0.43082542818265
C         -10.35986107677956   -9.59176700123708   -0.40807061572669
C         -10.46526712745342  -10.98633378382002   -0.35372709200527
C          -9.85420445855725  -11.64367869926462   -1.40378679816637
C          -9.25542215428183  -10.78271476535934   -2.32305172000813
S          -9.47653359126075   -9.12616721412208   -1.83323760028005
C          -8.53531332362221  -11.01432743986096   -3.50331172241844
C          -8.20136521818575  -12.20283874005328   -4.16325549454259
C          -7.46998457988031  -12.00140631212201   -5.30903506792497
C          -7.19863479787361  -10.64919862844294   -5.59296914589376
S          -7.90861703077944   -9.63491214966212   -4.36246773572756
C          -6.48952508078304  -10.13969272157775   -6.66872910666288
C          -6.22428451190873   -8.79890127147367   -6.92692205930037
C          -5.55002041963958   -8.27719251899971   -8.04046736722697
C          -5.45780095586344   -6.90147642136147   -8.04379085097282
C          -6.06148428911184   -6.30444038008552   -6.93889772490897
S          -6.72731870506818   -7.49672256683433   -5.87182111742726
C          -6.15728595971735   -4.93286411585799   -6.60607696276252
C          -6.78083694502422   -4.38710299736933   -5.50412657919517
C          -6.70561953352543   -2.99071541242254   -5.46222736090400
C          -6.03303444193701   -2.46939851609207   -6.52873706810226
S          -5.47440309838969   -3.67533991501283   -7.60965234857242
H          -6.32036596623325   -2.24143286753032  -12.35702506521124
H          -7.16419604540305   -6.92599838656652  -10.79967895994683
H          -4.96421755587723   -3.46469446296897  -14.48640403964706
H          -9.39466636140843   -3.53402383961655   -7.00137868483116
H          -9.01094958202301   -0.74787030695491   -8.22069795222886
H         -10.22122380551369    1.05052803016994   -6.62427650691670
H         -11.38431491616631    1.17800433957050   -4.31729072828238
H         -12.53885744050151    0.46683981555810   -2.03132124487641
H         -13.12609919598774   -0.88130414838808    0.09190222583320
H         -13.02651743153267   -3.43895086692147    0.96569924551827
H          -7.92313452650285   -7.27992283648884   -0.93637159790811
H         -11.71347108745914   -9.05077355870715    1.12627319619256
H         -10.98246319049069  -11.48613970351558    0.44623428288437
H          -9.83747211218865  -12.71292599450759   -1.51572571598829
H          -8.49830135215018  -13.16923537226592   -3.79697617978632
H          -7.12229725141388  -12.79294769740596   -5.94920201597380
H          -6.11579072674125  -10.85330281842971   -7.39150658743334
H          -5.15932247123266   -8.91038914864721   -8.81654704044745
H          -4.98479571770270   -6.32071371950942   -8.81678195036401
H          -7.27403567936630   -4.99425541048981   -4.76748457677233
H          -7.11810363721756   -2.40057790361164   -4.66429394709725
H          -5.83089497470156   -1.44041011802623   -6.75037816765448
