85
 SCF done       -176.076767476336          0.000971478781
C          -5.89688024823400   -2.99362703430631    9.51773266244361
C          -5.76953390788090   -4.02462982740581    8.61422179474600
C          -4.77371866613994   -5.01931284740681    8.67504383435691
N          -3.99659586759043   -5.86567254823747    8.65930590978501
C          -6.60892562036007   -4.25942336939786    7.51178089600074
N          -7.23674335079343   -4.54432773178486    6.59059364485000
C          -5.03182315643203   -2.78616901314794   10.67686225301651
C          -5.49872945845104   -1.65757348053671   11.39279703021299
C          -4.89438983824790   -1.20488024541896   12.53878867529824
C          -3.76989141175886   -1.89848290973805   13.00104001561679
C          -3.30882826287726   -3.02267760260114   12.27781779558402
C          -3.92319414086235   -3.48203600556129   11.11830836990944
S          -1.90484169812455   -3.72861706982427   13.02038208710307
C          -1.95723135330817   -2.51987310094633   14.27568386184359
C          -2.97213012824575   -1.63280818168201   14.14763081250217
Br         -0.66651986371047   -2.54257762547131   15.63702850439202
C          -6.68071897085766   -1.09880308261719   10.70209348757832
O          -7.32614691537023   -0.13124916731452   11.05701157599386
C          -6.89018926471310   -1.95308745343120    9.51675512598912
C          -7.87152458624084   -1.74732449344904    8.56564576959411
C          -8.81333302580998   -0.72604163482833    8.61157990353825
C          -9.77207354144546   -0.52134930431344    7.63805133387955
C         -10.74999389937408    0.49921133572284    7.63938267673029
C         -11.57392424116127    0.48519686807835    6.55340671321511
C         -11.28602433570055   -0.54963517961021    5.63754076650429
S          -9.93472625121307   -1.50951570352929    6.20423139603226
C         -11.93761542991787   -0.81724851686058    4.44707842353459
C         -13.03461638599182   -0.11646420248221    3.89313003838922
C         -13.47133941040005   -0.61169444891030    2.70434878976249
C         -12.74000536397440   -1.73644346964207    2.24608014974411
S         -11.46655276712310   -2.13601603519318    3.40376089459230
C         -12.96055010820733   -2.43513720647779    1.09519602296583
N         -12.22038045757321   -3.50054806459309    0.71095071261774
C         -12.39473686023535   -4.23349069007134   -0.41559436015787
S         -13.60141803441244   -3.81633518936049   -1.59588738819877
C         -13.06830391699761   -5.13757887894049   -2.58893020098118
N         -13.76377635995214   -5.40013702795964   -3.76773392665373
O         -13.42577310229429   -6.37711323154962   -4.41619940359487
O         -14.67233228652436   -4.63756192253726   -4.05610333786136
C         -12.01252181345506   -5.82506684855112   -2.04894126715038
C         -11.62590475682540   -5.33951732766816   -0.79013832129893
C         -10.62525510373409   -6.02571968042844   -0.00387539244649
C         -10.64983681171682   -6.21740290371056    1.32153895339457
C          -9.71284734782813   -7.07755806077998    2.02445466839534
C          -9.33861874261907   -8.31022031860346    1.59729663928911
O          -8.36076407404197   -9.09004331639002    2.14902633186399
C          -7.64571018217999   -8.65309061402399    3.22210151288401
C          -6.61734271889294   -9.37894089113499    3.73936583839823
S          -5.90545073908410   -8.60679100733828    5.10365290173656
C          -7.00274150040412   -7.28960862264230    4.98052531076256
C          -7.86346228931974   -7.44762083970519    3.94382106216184
S          -9.11086127669727   -6.29108123351923    3.50503020928429
C          -9.93563065159232   -8.99118732913451    0.46085817976036
C         -11.23484853709169   -8.92282932350317    0.11542900438970
C         -11.77331965132096   -9.48268152954756   -1.07849023031014
S         -13.43860656145957   -9.19113700094419   -1.53829352879513
C         -13.30719224429576  -10.01308792227671   -3.03469573129180
C         -12.03699368871009  -10.50833325888491   -3.19865925924997
C         -11.18055211429746  -10.20037936098031   -2.09245964813151
O          -9.93883180976860  -10.69095236618677   -2.29748360798316
C          -9.99542973128085  -11.30890026411942   -3.51108614161464
N          -8.80922070378953  -11.92311141845402   -3.98493278446474
O          -8.88438725459952  -12.48849403745758   -5.05854866057041
O          -7.81554740876672  -11.83980285614662   -3.29686550996242
C         -11.22241302470825  -11.23853133437256   -4.10903692371453
H          -5.27484408328048   -0.34225140442670   13.06301568047170
H          -3.53187599611921   -4.34319694482498   10.60303829982409
H          -3.15227340298498   -0.82382484515715   14.83182673594084
H          -7.91607444070946   -2.41751349367066    7.71555897787413
H          -8.80156235029207   -0.04586436779310    9.45116484643421
H         -10.81134581691706    1.21057867412238    8.44339786243289
H         -12.37139286220171    1.18758331362296    6.39154251619090
H         -13.46958556503716    0.73203690157417    4.38838917450324
H         -14.29185937354218   -0.20926043036991    2.13832022199357
H         -13.76982355406019   -2.14993708366533    0.43838680272184
H         -11.43133833509411   -3.75681301916089    1.29742980569853
H         -11.56086428875977   -6.66859875049117   -2.53826191741243
H          -9.88761607081829   -6.55770565273505   -0.58812725890837
H         -11.36667076856309   -5.71515608323342    1.95890606182027
H          -6.24935781990119  -10.32010341995680    3.38725830045334
H          -6.96026360898765   -6.46665503738439    5.66631314772218
H          -9.26100064858281   -9.63390109079379   -0.08766260041925
H         -11.93278361980960   -8.36144215603473    0.71930139488025
H         -14.14773032166198  -10.06905751584700   -3.69431503127654
H         -11.48578384549855  -11.65109263403507   -5.06064993732526
