99
 SCF done       -162.641550449796          0.001268866297
C          -9.45744518967684   -3.50767494566261    2.66561144889390
C         -10.31442206677920   -2.75738170594362    3.43723082394816
C          -9.89609981125304   -1.91509540188151    4.48267200695674
N          -9.60549301228941   -1.22997493871237    5.35895346977415
C         -11.71538418152921   -2.81867025162405    3.32582481647411
N         -12.86379291944083   -2.83909073035592    3.28983682746698
C          -8.00414205331466   -3.52523348154193    2.77123001167488
C          -7.50499270829448   -4.53474999337360    1.91345228072470
C          -6.16212307804092   -4.73475603022442    1.71421536282888
C          -5.27062744353722   -3.93508681108468    2.43712382396026
C          -5.78026037523270   -2.98475449980234    3.35116986841148
C          -7.13915156525029   -2.74977456179816    3.51871435722082
S          -4.50257241537271   -2.16878903695308    4.20229033376350
C          -3.31942367876138   -3.09141499723668    3.31267277163922
C          -3.84909938780355   -3.95793208300651    2.42007364441545
Br         -1.49694723761252   -2.85194340169206    3.66998965395497
C          -8.63895409090582   -5.28191716698038    1.33016084537098
O          -8.56165603672466   -6.27052335443426    0.62918911707195
C          -9.84598427130073   -4.51829942706954    1.71998126665214
C         -11.07207083886686   -4.71299032155482    1.12919880753580
C         -11.44038708108712   -5.95574757844841    0.55615156678897
S         -12.21154328982060   -6.10291783439434   -0.99650221228210
C         -12.07586540033422   -7.81572066407255   -0.92499693931633
C         -11.51810103867549   -8.27449558289755    0.22871332517587
C         -11.31282532721879   -9.71224301363310    0.56526400389254
C         -11.18509940173563   -7.21202346441286    1.11288294906094
C         -10.76089064241203   -7.32784640162587    2.47864782267315
C         -11.23593163876612   -6.47785929610945    3.42791827186415
C         -10.65044422777103   -6.24063333216441    4.68675866695421
C         -11.14278978126473   -5.29043385803997    5.54611743240447
C         -10.45918192679674   -4.66249874591608    6.59805168508483
C          -9.09460678525960   -4.63520537559336    6.78972261891683
C          -8.39159857479419   -3.89389975303461    7.77012349066665
C          -7.03149002363648   -3.96144800343517    7.66981383586341
C          -6.58610249836027   -4.77054760987470    6.60717478565050
S          -7.95006211590778   -5.43510015590737    5.73492973803754
C          -5.31748561641404   -5.11796273469584    6.18362825530036
C          -4.03630001925943   -4.80654712854095    6.68517412558108
C          -3.01847560568585   -5.35228736423299    5.96156173768747
C          -3.43933658585897   -6.11073263129349    4.83449035527297
S          -5.18766629591606   -6.13622723001470    4.77212644576893
C          -2.62571560964820   -6.62273949688023    3.86066456623229
C          -2.95900431948414   -7.26484611550957    2.64273298668186
S          -1.79243415731399   -7.01217795242910    1.35687185284379
C          -2.73508528204735   -7.93102726664626    0.21800090616183
C          -3.86449314139247   -8.44657632230034    0.82948765079146
C          -3.99839264174059   -8.06802326365742    2.18279041865413
C          -5.04249766427166   -8.74520440899877    2.99897127123984
S          -6.72734590187757   -7.98544877317862    2.85148393252983
C          -5.08951087666624  -10.21175896163353    2.57217269133881
C          -5.54980685266228  -10.34386362256228    1.12438046190430
C          -4.80471013335226   -9.40007514359631    0.15775317915517
C          -2.21867167149095   -8.06334156435553   -1.10676576680294
C          -2.92549246784393   -8.34876023841259   -2.21981957463635
C          -2.38382705889302   -8.49883246378057   -3.54568239645703
C          -1.17506480539904   -8.95643035149946   -3.90542057033813
C          -0.12477920510920   -9.45443704625689   -2.96523844196941
C          -0.80380375628290   -9.05165497070583   -5.36287654201634
N           0.49926203311168   -8.46780662928279   -5.58483098146120
C           1.26526535978157   -8.83348393262305   -6.66727218545542
C           2.21671569951425   -8.08735268472637   -7.21670454580126
H          -5.79878123548451   -5.48819228640868    1.03317156344994
H          -7.48190067433075   -1.99128375557977    4.20318965717767
H          -3.26399608513385   -4.59450871803935    1.78217237767655
H         -11.76654237507449   -3.88519865742413    1.04233660007875
H         -12.42918087801805   -8.39719181732944   -1.75473574196428
H         -11.60205090752626  -10.34787289045750   -0.26767023803768
H         -11.90560282743689   -9.98186222315672    1.43885156067426
H         -10.26505187078561   -9.89086563401485    0.80231100616159
H         -10.02591767229804   -8.08038419299952    2.72790863800697
H         -12.07444910017441   -5.84071736595904    3.16660065091023
H          -9.74137428435924   -6.77718703472129    4.91468194317465
H         -12.14756556808287   -4.92787594621413    5.35929522051087
H         -11.04053186472298   -4.03850933345179    7.26445616348818
H          -8.91553129175322   -3.31871439258472    8.51276095962554
H          -6.34675805473910   -3.44599618144253    8.31960644276918
H          -3.90168320350372   -4.18801316441855    7.55461035976966
H          -1.97395985313143   -5.21832797713031    6.18225251432603
H          -1.57194843065035   -6.39108668060252    3.96884710988261
H          -4.82383714819806   -8.66383861472460    4.06478317210285
H          -6.72711301969290   -7.80274401764472    1.53562192977292
H          -5.77235613620604  -10.76110995782533    3.22152917345955
H          -4.08771772622710  -10.63288462689299    2.69343525272457
H          -5.40983351077883  -11.37645598181271    0.80263903228232
H          -6.61986117040118  -10.13528450449948    1.08509309153657
H          -5.53991020356276   -8.82738621636925   -0.41721930267246
H          -4.22622695297831   -9.98614182966885   -0.56043785767743
H          -1.16619772162684   -7.83684641155240   -1.19679667292307
H          -4.00305786475676   -8.41138429720873   -2.16206354126466
H          -3.08053799056369   -8.25012797267100   -4.33875945426090
H          -0.57262548750893   -9.86905207117425   -2.06459697301937
H           0.54826215592076   -8.64818336692245   -2.67486998262993
H           0.47746092952710  -10.21600074784807   -3.45559125569490
H          -1.58305535543241   -8.58084474769608   -5.98402508368009
H          -0.74319711203161  -10.10846928156167   -5.65016307699207
H           0.55985860049857   -7.48815708551722   -5.34273560389208
H           1.07462737970337   -9.83947834384524   -7.01896451165957
H           2.41880311617134   -7.08602616970498   -6.87671363651746
H           2.83309008707453   -8.46557339430001   -8.00957389896854
