96
 SCF done       -178.923369078085          0.000384749110
C          -6.44547475180940    2.56048453309506    1.33151778144699
C          -6.70454161999278    1.31403380148145    1.82404472018524
C          -7.39138020383470    1.07254283936581    3.03076805014635
N          -7.90516335235235    0.83232396228247    4.02884832234030
C          -6.36183540418255    0.11260072037873    1.16151336685928
N          -6.20475544366873   -0.90033680632780    0.64482368909439
C          -7.00447010323256    3.81707678020120    1.79659164091127
C          -6.71470979014437    4.81824268645555    0.83640751698301
C          -7.14935048065461    6.11491767601518    0.97368789556965
C          -7.89516448868043    6.43907638431276    2.11108715324027
C          -8.17210428475675    5.43220995405301    3.06758885288797
C          -7.74069468509746    4.12009327004844    2.92785850970749
S          -9.10578360382433    6.05238301267591    4.39578417019028
C          -9.11511651754335    7.63189673916091    3.65686023460943
C          -8.45232669172154    7.69500441467737    2.47801680129095
Br         -9.99864539805466    9.04893544127503    4.51090366631140
C          -5.91771968936133    4.24477700515047   -0.27414526322717
O          -5.59054187107278    4.83053741053862   -1.27842879728468
C          -5.62105458738282    2.84840155888411    0.15842302681264
C          -4.60002757684479    2.04344614845503   -0.20258414153645
C          -3.63325824501526    2.19950182315366   -1.26984639425181
N          -2.52257388797625    1.46781696957232   -1.11749078898412
C          -1.61240460305887    1.56030211182694   -2.06930600562504
C          -1.78813554681775    2.35735561040440   -3.18721906669913
C          -2.99325266583882    3.06979401084656   -3.27328913524449
N          -3.90159090106728    2.97692761302806   -2.30208587350189
C          -3.32899715897093    3.87845127461319   -4.42245551954809
C          -4.43693858804504    4.63412427254300   -4.44498854274646
C          -4.90006936774901    5.40594635350874   -5.57264890002410
C          -5.37783624555510    6.69368244577827   -5.47314254101968
C          -5.55303125215212    7.55498610452998   -4.27718175318051
N          -5.63856959131384    7.14768663917809   -6.73694084044127
C          -5.36546157140017    6.18966088292802   -7.65564057930628
C          -5.60793049419599    6.40117365679736   -9.10599445122524
C          -4.91167010188916    5.06053114216504   -6.97487478147373
C          -4.66893721050090    3.80212299381173   -7.59653204856348
C          -4.59240708410733    2.61209549483136   -6.94027409029402
C          -4.34837484520691    1.36550916296050   -7.53591228044855
C          -4.16694010595736    0.22015241034418   -6.79734869277323
C          -3.95378220873238   -1.09688497970896   -7.26306371242454
C          -3.78608062574606   -2.02099649167228   -6.27380529977415
C          -3.83891723552095   -1.47987913681347   -4.97057909747117
S          -4.13543543231598    0.23603787266433   -5.03376665778173
C          -3.67331171479951   -2.14367852176940   -3.76367832159233
C          -3.49755122242266   -3.52398482343644   -3.55169457792104
C          -3.36506697080213   -3.86165393527585   -2.23420412829020
C          -3.41358605032481   -2.76433800855283   -1.34963182430988
S          -3.65132317609272   -1.28404387662056   -2.23667404443224
C          -3.29585623238854   -2.82451689610821    0.03072974058093
C          -3.33190800922382   -1.71400687048445    0.85491427071171
C          -3.30588930119960   -1.69935882709859    2.24172288618772
C          -2.93803209061468   -2.71812582026539    3.18414378173603
C          -2.03368052590011   -3.73924639034712    2.99330261079694
C          -1.68723883547116   -4.67670197096693    3.98350725030796
N          -1.37878040439424   -5.47936565518742    4.74599277905821
C          -1.25820189723589   -3.90508501357972    1.82987218541589
N          -0.56361775108543   -4.06980379417309    0.92939813804728
C          -3.52538433099053   -2.35659630707510    4.47521708623388
C          -4.07356618966487   -1.05516366595771    4.36491093283437
C          -3.88398314679770   -0.57449361326688    2.98167336650395
O          -4.20210395009385    0.52302975435307    2.54884901520515
C          -4.69656674710909   -0.42395279776705    5.41186635938503
C          -4.78568541405952   -1.11310003967772    6.62722622848052
C          -4.23509432806136   -2.41027767118670    6.72697727024502
C          -3.60079642356641   -3.04888961777098    5.66585270015207
S          -4.46049275603178   -3.07944020924344    8.31507522479149
C          -5.28019874828050   -1.62385075258343    8.81523215281078
C          -5.38168391362715   -0.68539061313751    7.84586288576026
Br         -5.92127674945944   -1.48156977213294   10.57238466942728
H          -6.92145043911032    6.85870104376999    0.22608649637215
H          -7.97218855411588    3.38354339562625    3.67951341567244
H          -8.35884589506249    8.58984833415924    1.89022338756166
H          -4.39130766299192    1.18915474356529    0.42961329199149
H          -0.72022246102185    0.96307982387453   -1.92694985667865
H          -1.04448343033822    2.41855390732879   -3.96545125171378
H          -2.66249342091564    3.81951711422581   -5.27214476655361
H          -5.00996289678743    4.69985569264920   -3.52877482724161
H          -5.62355504603132    6.93612645797512   -3.38669329377135
H          -6.45539947778387    8.15857709492642   -4.36806496184026
H          -4.70358969817324    8.22866438347078   -4.15398034215801
H          -5.98725940822309    8.06856572901852   -6.95233260305508
H          -5.74978555618680    7.45904772803844   -9.31679191246278
H          -6.49896538675209    5.86375601436982   -9.43323019535151
H          -4.76551534481890    6.04000079265344   -9.69290052869113
H          -4.58427127095934    3.81030762363516   -8.67682564220185
H          -4.72654196344150    2.60284974836743   -5.86877868925639
H          -4.28336655654809    1.29116408335597   -8.61386577987530
H          -3.93478184928062   -1.32359400459756   -8.31474927183145
H          -3.61432071979172   -3.06795417876832   -6.44710082143837
H          -3.48198647048793   -4.23110527737702   -4.36157841496582
H          -3.22024158505088   -4.86458986043911   -1.87433756769293
H          -3.22082066155335   -3.81472112238046    0.45580954021477
H          -3.49101660216936   -0.75377457592438    0.37758417382383
H          -5.11140846307642    0.56573097713724    5.30218365417210
H          -3.20531992391574   -4.04371102510615    5.78744222005900
H          -5.85984686110623    0.26788529542135    7.97816576540422
