92
 SCF done       -165.506731529473          0.000955539372
C          -8.55246268614156    4.48436385101521   -5.19603953831308
C          -8.02249554364770    3.45829318989764   -5.94561912901668
C          -8.45360694939783    3.17811314345673   -7.25544940068201
N          -8.79038981716106    2.97028509927394   -8.33382277365039
C          -6.91818125742519    2.70038382312822   -5.51541662464345
N          -5.98183771217214    2.12214225409876   -5.18161250089221
C          -9.54776641777051    5.44459555107848   -5.62914765009463
C          -9.56026488206200    6.53754710982464   -4.72235383865355
C         -10.37895150934630    7.62766339747777   -4.88877118445925
C         -11.23989899137289    7.63787220976847   -5.99136695690706
C         -11.23352416950709    6.53544256954515   -6.88056247577656
C         -10.40104015573773    5.43746815734779   -6.72131099516471
S         -12.37999166264598    6.75038237789799   -8.16990760608387
C         -12.84046254520217    8.29793654369007   -7.50791422299013
C         -12.17431289856418    8.63641441814156   -6.37885074126541
Br        -14.15582540362541    9.31939396530963   -8.37113879872951
C          -8.58175627662743    6.29421638300949   -3.64516685563554
O          -8.23963333140638    7.06673924374414   -2.78004728028768
C          -8.08403529134014    4.90620718530365   -3.88089319779482
C          -7.37012526142363    4.17903739197854   -3.00309339639038
C          -6.88331209887553    4.65294764363022   -1.71034327067784
C          -5.47059585122171    4.67473950976702   -1.51504706224120
C          -4.95927158367888    5.11474616835623   -0.31923726006458
C          -5.81362202564324    5.52997574215624    0.71804543098858
C          -7.22345826108360    5.49008542113551    0.52236582154288
C          -7.73449026239438    5.05175663932090   -0.71193488123888
N          -8.06625997215768    5.86218385653240    1.50820648896490
C          -7.53075041766983    6.26821128254858    2.62739461873630
C          -6.13402453608476    6.31978022696075    2.81725812618138
N          -5.29160066468280    5.95622871605460    1.88802372637739
C          -4.59909654608013    4.21545632490682   -2.60300555268749
C          -3.58435707446484    4.88882507676671   -3.13958724723069
C          -3.21520648335460    6.29171514256912   -2.76927615733086
C          -2.70514217326708    4.21856021229377   -4.17862675990758
N          -2.23780944951473    5.10249183879036   -5.21650309822078
C          -2.57928500739746    5.07274889942739   -6.52262666260850
C          -3.43530671731562    4.21102601735941   -7.13495073833362
C          -3.69015720547200    4.24253740135299   -8.51884849093773
C          -4.54159092846116    3.37238448009811   -9.15100600664810
C          -4.91173170127539    3.32828751299602  -10.51650089031604
C          -5.83473630105324    2.37074047275560  -10.81728382198265
C          -6.25194753503480    1.60782195160199   -9.70445885677165
S          -5.39250657615686    2.10632934010323   -8.27258555030514
C          -7.23167404420200    0.63675348981241   -9.62066920584298
C          -8.04877195201577    0.11357073511744  -10.64561545441994
C          -8.97258296988504   -0.77906032397900  -10.20043526490691
C          -8.95422550846900   -1.00023275545641   -8.79354270923004
S          -7.67467662665674   -0.04927211145153   -8.07267746820235
C          -9.76993508887186   -1.88612074656858   -8.14592532055106
C          -9.90749302712496   -2.15001526211424   -6.74874105770066
C         -10.40891773157021   -3.39905472441705   -6.34000656219423
O         -10.66390179091213   -4.25209096444909   -7.37099754315120
C         -10.81162233877159   -5.64255495205999   -7.19435072917057
C         -10.62506629388670   -3.70408888970236   -4.96155436161258
O         -11.14581815732107   -4.93741149535507   -4.68154588695122
C         -11.36738518628669   -5.28837914822658   -3.33772309855888
C         -10.33400098897429   -2.78685205794186   -3.97808703239894
C          -9.85325377836817   -1.52636163192529   -4.34813810868732
C          -9.63979711101435   -1.19415526003596   -5.73193293729456
N          -9.24505848500220    0.06421921452662   -5.87873175850142
S          -9.12544604710697    0.75111280178546   -4.42423352137773
N          -9.58883570140333   -0.50916001203416   -3.53110574621271
H         -10.35842884955375    8.44749750588502   -4.18790198135494
H         -10.43414016452763    4.62031600081338   -7.42197914375262
H         -12.33332153186457    9.55286420994952   -5.84044489529417
H          -7.09688089768047    3.16302562635165   -3.25485471312931
H          -3.89531866328990    5.12902098963077   -0.13956031997626
H          -8.80454489086458    5.03064072360697   -0.84615702773364
H          -8.21323480389908    6.56559359336975    3.41259031751210
H          -5.70816912303869    6.66400634350325    3.75062246328887
H          -4.83140394794938    3.23132920983472   -2.99150236763054
H          -3.90945115710789    6.69761044875628   -2.04059588590176
H          -3.24174243134900    6.92765685152180   -3.65389930863837
H          -2.20814553418371    6.32864545129666   -2.35380914399902
H          -3.23800808879216    3.38309575924673   -4.63033209795177
H          -1.82520746668065    3.81359020015783   -3.65728852566100
H          -1.59206281437649    5.81656659501219   -4.92229336703346
H          -2.08259926470537    5.82610686423555   -7.12192299680101
H          -3.95984535943951    3.45703067691238   -6.56680123287457
H          -3.19469508685191    4.99304938764615   -9.12144368776436
H          -4.49634982385535    4.01748744442970  -11.23148532335088
H          -6.24205354807083    2.20849354782413  -11.79920883004384
H          -7.93741101184885    0.41391062003730  -11.67234140398959
H          -9.68922583657894   -1.27888164651272  -10.82851280243850
H         -10.38494196437204   -2.50834524008649   -8.78280757729457
H         -11.77163699219939   -5.89860961265864   -6.74212588298092
H         -10.00373968816890   -6.06326376685736   -6.59272112942710
H         -10.76410843927232   -6.05610857746934   -8.20227262801013
H         -12.09600930032149   -4.62405029136862   -2.86328869907363
H         -10.43737939239790   -5.28119694674517   -2.76120946219775
H         -11.76694767480774   -6.30113086944692   -3.36627965361057
H         -10.48881128912910   -2.98937474697657   -2.93317566381492
