92
 SCF done       -181.052367268734          0.000491226387
C          -6.55851267385822   -0.47799900693713   -3.40662143095684
C          -7.44717445514997    0.42123563748347   -3.96545375589334
C          -7.87536850861670    0.37750199217510   -5.30640521753558
N          -8.26671338523583    0.41370196362993   -6.38656879890685
C          -8.07822717484859    1.49662448595192   -3.31818246944246
N          -8.65278893425595    2.39506209565194   -2.87877585206908
C          -5.96916547546759   -1.60579340409167   -4.12265228129904
C          -5.15508527660372   -2.33117168755186   -3.22241604975864
C          -4.46316445136965   -3.45745132985744   -3.58882101957708
C          -4.57417655807101   -3.88943372559177   -4.91588429792061
C          -5.38740779300872   -3.15705467647123   -5.80994012702810
C          -6.09173187208313   -2.01859167260940   -5.43611072323182
S          -5.38449391488307   -3.86158460900196   -7.39999392414255
C          -4.30482482529634   -5.11321675433458   -6.84600031965133
C          -3.96284505655469   -5.01145587966927   -5.54022991543551
Br         -3.73039650756409   -6.43757074214657   -8.04502040591418
C          -5.19620934167513   -1.68734459340921   -1.88579516371190
O          -4.64685894468764   -2.11203094474221   -0.89330191889274
C          -6.05664854516380   -0.49661281301670   -2.05461889648114
C          -6.38450877386474    0.48571296661538   -1.14185792303143
C          -5.98115432325537    0.71165849654709    0.17855608218758
C          -6.49301033885689    1.78725851789302    0.91730065109030
O          -6.09921374885098    2.03805845034466    2.20293800660765
C          -5.20468033162831    1.15628039744321    2.74475953406060
C          -4.68632622508136    0.06485150039649    1.99167386615046
C          -3.81569732617420   -0.69443589956391    2.70204758520243
S          -3.61874583283918   -0.08252702082407    4.30273278980764
C          -4.72115444710791    1.20804608955261    4.01118027205166
O          -5.04570954176550   -0.14834093623571    0.70481233740486
C          -7.45183162559556    2.70691432210254    0.43343162523918
C          -7.89703741378335    3.78083271607922    1.14514244617065
N          -8.78131732562816    4.65298907433647    0.64240612626701
C          -9.31925832907200    5.77991969807667    1.38946554320556
C         -10.00755869270279    5.34608145209885    2.68543493530065
C         -10.97956982456092    6.42492782510411    3.16988447804724
N         -11.57645354511566    5.98310024590142    4.41241025912625
S         -12.91023865973078    5.01393530767168    3.94664987423178
N         -13.34399584742769    6.02905389811057    2.61558663745465
C         -12.12720885697292    6.65688415829641    2.12240148269780
C         -11.74646754717510    6.07720849929141    0.75987060081166
C         -10.31069586203271    6.49113509241333    0.44726650162537
N          -9.90148883604994    6.12558596946773   -0.88805316282534
S          -9.47037365717507    4.48030639781369   -0.92146867428810
C         -10.08694955331950    6.84002644526364   -2.02016121535299
C         -10.67968283380654    8.05821663343530   -2.18054967947520
C         -10.75538242705282    8.76484323827905   -3.41282345318985
C         -11.36964339307098    9.97569153366168   -3.33556604899617
C         -11.81992458226612   10.31324342056797   -2.03856474637392
S         -11.45061944078491    9.02597942544103   -0.91694525844433
C         -12.44954694991105   11.45600747499149   -1.58864479059919
C         -12.81388638249366   12.62220811054544   -2.29349327742738
C         -13.40487654132734   13.57028034328678   -1.51471356523406
C         -13.54315570874325   13.20919682957286   -0.14753662242939
S         -12.88860216163461   11.60476764502756    0.10261486325787
C         -14.12952279997414   13.98308886844573    0.82194073834685
C         -14.29818233773235   13.67266879461851    2.18652609635378
S         -15.30949832907144   14.69967362799282    3.19788251522916
C         -15.10938936678288   13.74092759116858    4.61404474705789
C         -14.29256569196457   12.66945036634346    4.34704956979181
C         -13.83144095294097   12.64721241746807    2.98978876060568
O         -13.00114045305074   11.60195518254902    2.79133232431949
C         -12.95330662741580   10.93984205083101    3.97659099826491
N         -12.16102494653732    9.79104599035153    4.01761102727171
O         -12.23491900554304    9.07623392177089    5.01137183795632
O         -11.44871167912037    9.54475925474009    3.05483083057960
C         -13.71014225093363   11.52884954601329    4.96078232263879
H          -3.85353443602612   -3.98964277691324   -2.87546369826770
H          -6.69875160845933   -1.49848988504456   -6.15764668114481
H          -3.30730855231584   -5.69783907585097   -5.03599990566150
H          -7.06055408600105    1.22903417263550   -1.52298089130916
H          -3.29085345960581   -1.56598282033042    2.37313960286640
H          -4.94683078640901    1.91952577089563    4.77764369771055
H          -7.86249623796430    2.57498358526204   -0.55383350294018
H          -7.55054211512286    3.97703075422367    2.14863769615481
H          -8.48640290182144    6.45651846072802    1.62321028081011
H          -9.27277389581873    5.16817839746743    3.47035525186192
H         -10.56094669319863    4.41823321175652    2.53477058065017
H         -10.43762500553742    7.35776335448363    3.34107355225419
H         -11.86932080948491    6.77021532336290    4.98965771784985
H         -14.03665804780933    6.70991009371830    2.90794440828348
H         -12.28243583755341    7.73289258802840    1.99888717845056
H         -12.42236279356388    6.47003237134720    0.00038811747112
H         -11.84703331823794    4.99188499217090    0.77052328383692
H         -10.21699260099268    7.57367648762905    0.56366795594465
H          -9.68540080187655    6.35554525639308   -2.90084072149202
H         -10.34753531661759    8.34744736067983   -4.31626786986422
H         -11.51261336456944   10.63703751551025   -4.17095603596685
H         -12.62809194028831   12.73226091118464   -3.34711987742667
H         -13.74807775708015   14.52462195306023   -1.87325995387689
H         -14.54247190657824   14.93108651385586    0.50514891783710
H         -15.59000370822801   14.02259578565377    5.52658072174935
H         -13.81203699648342   11.18569943159742    5.96924289337328
