134
 SCF done       -224.634237825522          0.000365264390
C           1.06974732558575    0.70776653149323    4.70063196006521
C           0.90834267497455    0.07058979985389    5.90305238333045
C           1.78143053806125   -0.92276265391897    6.39380504648416
N           2.45902044760180   -1.73178331817137    6.84578512829207
C          -0.15629236846383    0.28678733340821    6.80361663071126
N          -0.99376839242762    0.39016293189915    7.58263517943151
C           2.11750520921906    0.42926876442576    3.72798235231454
C           1.86620051822418    1.19065538669849    2.56152722138060
C           2.68040765369926    1.14565312825804    1.45602108613351
C           3.79698404525283    0.30514397297076    1.50256268228062
C           4.04341299242188   -0.44997451012587    2.67437655957295
C           3.22100116297735   -0.40238342578356    3.79262131305876
S           5.47953889333749   -1.41652450617224    2.52079709837803
C           5.72322754636578   -0.80460527178113    0.90616182533826
C           4.78068264828430    0.07930745507753    0.50123302354999
Br          7.20098928742343   -1.38743316296059   -0.09061497888678
C           0.64287636594780    1.99833932084582    2.74516449858674
O           0.18033804553747    2.77559433807444    1.94018181392193
C           0.18488493612144    1.71262823787015    4.13134239042423
C          -0.74743692609080    2.41850151318200    4.82716107197331
C          -1.71102144937952    3.35540419109800    4.32204824775692
C          -2.09208869828427    4.42557329052646    5.15372151141892
C          -2.99262274379815    5.35013586491135    4.69390135362997
C          -3.57195361133209    5.20866351872755    3.41754141930709
C          -3.24813031926913    4.12298876326184    2.61427761535263
C          -2.31899495418936    3.21006481002893    3.06630994951237
C          -4.47284443505127    6.31582777854726    3.19757433295149
C          -4.44966472831345    7.14583612590550    4.33350653405811
C          -3.51169439415366    6.59172709078597    5.38006162948119
C          -4.26385741155164    6.24396623527434    6.67865109621627
C          -5.41350153960148    5.26903454110909    6.45465112189993
C          -2.37018301427855    7.57758404092758    5.69168093811569
C          -1.57505402511448    7.97305870210811    4.45309446749255
C          -5.21195055364694    8.28516831223838    4.37743672032429
C          -6.02511312303906    8.62816365124501    3.28216936737544
C          -6.04086030992957    7.78357901254527    2.16021957814444
C          -5.27533146381662    6.63842217071639    2.11000556745417
C          -6.79144347107370    9.84346766041468    3.36486239017633
C          -7.64993616509974   10.31345483983330    2.43242320772592
C          -8.37589016366987   11.53934358919680    2.52423472950393
C          -9.24697570548855   11.91036466238358    1.47183490875518
C          -9.99577433533334   13.14621599562298    1.47796597191761
N         -10.74230545122875   13.47207262734234    0.40651759443569
C         -10.83325712729213   12.63777150004680   -0.59609329177225
C         -10.15049688522035   11.37555674948552   -0.56700518141777
N          -9.37342439640276   11.06068126963621    0.43798092981115
C         -10.30195339884848   10.46042105863869   -1.63706547240293
N         -10.44708885109613    9.73917944686809   -2.51584182163640
C         -11.61736070721236   12.99162671799144   -1.72177007287774
N         -12.25229514578803   13.23604330007857   -2.64380694339816
C          -9.92777645633901   14.05350549194026    2.55365875886881
C          -9.06545426399295   13.68502888433853    3.60429065597420
C          -8.30543819554823   12.45235885918894    3.59866513735433
N          -7.58204227131367   12.31972283201170    4.71354523723779
S          -7.83713160502408   13.58707088891629    5.66600529654493
N          -8.86530769059999   14.37919945960637    4.73009141436565
C         -10.68806482583816   15.29035002197098    2.59631270899130
C         -10.12786881132218   16.42676087253087    3.19988954408501
C         -10.86128811436821   17.58216288749474    3.27641268599920
C         -12.16352645063275   17.64374128692727    2.74948634272467
C         -12.72160055664932   16.52819164492734    2.13843236009651
C         -11.98404113466491   15.36507463497974    2.06806833233483
C         -12.70468470996243   18.95359035914158    3.02061708573841
C         -11.74225201654571   19.70284852463370    3.72724640591755
C         -10.45764264727294   18.91708162988643    3.86436758083540
C          -9.99488751372832   18.79020271743548    5.32264904100519
C         -11.01705327514780   18.06910503567277    6.19360625503955
C          -9.34251034970833   19.49220564778003    2.95890953556382
C          -8.90335313884256   20.91647116015066    3.27208972458894
C         -12.04594416259689   20.95245771665046    4.20327808607611
C         -13.30877218809734   21.51467520329443    3.93881012879928
C         -14.23467908460734   20.77101446787884    3.18617610993691
C         -13.95183457244482   19.49873606076138    2.74096240020902
C         -13.68773183395294   22.81600849694620    4.40801416084996
C         -12.97569899746358   23.61477874629889    5.24546000331520
C         -13.41258282568801   24.88359321999904    5.67061992178416
C         -12.72463911405548   25.67920107511404    6.54722072866849
C         -13.10325675743726   26.96410314953669    7.01649986099673
C         -12.23174271881980   27.52079981130655    7.89689347021847
C         -11.10485857990818   26.70973620439241    8.18478149151500
S         -11.19450975158720   25.21155122592092    7.28012061830263
C         -10.06527703072353   26.98347888419474    9.04083808409242
C          -9.88056902431535   28.15292319067888    9.83059945108098
C          -8.76487581723323   28.14096554759558   10.59247594706692
C          -7.97213989556167   26.95148277516088   10.46568573883133
S          -8.74655086120107   25.85946733771017    9.30644812830300
C          -6.82743993969279   26.65685640985905   11.09659899017166
H           2.46041274514541    1.73911966933948    0.58246188139136
H           3.45509035733909   -0.99144294194113    4.66345286730114
H           4.77756470185284    0.55418667438158   -0.46284629021537
H          -0.75129202824295    2.30835314727442    5.90590972618581
H          -1.64304348843537    4.52180273946980    6.13202476644740
H          -3.71330147327845    3.99412349353074    1.64912533222535
H          -2.07985545416643    2.35179996216838    2.46090268487034
H          -4.65149077906775    7.16726231728923    7.11415689477058
H          -3.55542593693555    5.81151520767873    7.38812241081495
H          -6.14358926129444    5.68639051785874    5.76461977763889
H          -5.91255413406165    5.05817709352135    7.39746313841500
H          -5.04857128739241    4.33088864900623    6.04250622377515
H          -1.70063060938136    7.11759091458213    6.42153828273561
H          -2.79742962072715    8.47243986778706    6.14891044773863
H          -1.12271056598580    7.09924732874841    3.98922506682693
H          -0.78279575541078    8.66722302041159    4.72379205774414
H          -2.21881397281842    8.45473714327263    3.72045832524885
H          -5.19735510005866    8.93024801303900    5.24436853843521
H          -6.65996491430438    8.03714421125928    1.31430936773791
H          -5.29679125051216    6.00439613044242    1.23646920609870
H          -6.65000789794378   10.42617314584484    4.26480084372975
H          -7.83854244294573    9.76307535138463    1.52216758354673
H          -9.12525647433200   16.38057396095440    3.59323976807256
H         -13.72348507386951   16.56179759180389    1.73770647558572
H         -12.42203740176635   14.48598062377450    1.62372915219268
H          -9.81863926162169   19.78634897332455    5.73049537206206
H          -9.05034816573563   18.24313761990931    5.34633448365001
H         -11.97499546122510   18.58429421028791    6.16559530374547
H         -10.67374397843373   18.03639291641689    7.22504722314377
H         -11.16381751953985   17.04886667913529    5.84704828860748
H          -9.69717707628517   19.45431457714451    1.92544034881361
H          -8.47955156817540   18.82675579756087    3.03497851807495
H          -9.71821050220482   21.61768459188972    3.11424210052323
H          -8.08687127152211   21.19457496052672    2.60894899583678
H          -8.55048723756108   21.00777990505079    4.29583951479040
H         -11.32649083126111   21.50643117519591    4.78425772294688
H         -15.20044538547226   21.20799360924693    2.97494251851790
H         -14.68764385348816   18.93277965029565    2.18949081245233
H         -14.64928429855181   23.17728043541041    4.06262456490890
H         -12.02239953744846   23.28665722243996    5.63734263454145
H         -14.35267894353360   25.25942439800667    5.28792898657479
H         -14.01346137900453   27.43103800047492    6.68300125556453
H         -12.36411600230258   28.48664691692158    8.35052294306689
H         -10.58713909629883   28.96349362881839    9.80344347604263
H          -8.46087058434607   28.93402899926513   11.25232738603658
H          -6.39200715317588   27.34925050016609   11.79515737269684
H          -6.31155062112708   25.72932965298346   10.92898553744930
