95
 SCF done       -200.070477127780          0.000278346847
C         -13.47106015672354    3.29390033412998   -1.24423970847027
C         -13.91337958769057    2.34790770595606   -0.35765740722699
C         -14.64166662930725    2.64970845567783    0.81072477809984
N         -15.20642231848790    2.85481291764427    1.78855191558684
C         -13.60505787003248    0.97726038024178   -0.46960548253247
N         -13.34733889555568   -0.13992147844560   -0.52588438763138
C         -13.67764894727352    4.73173708551872   -1.14248862695540
C         -12.84710573351465    5.39184197357130   -2.08835613661729
C         -12.83194735171068    6.76195128467432   -2.21768786954169
C         -13.70123233621598    7.50881990836561   -1.41226956592717
C         -14.54559353211940    6.83208142414843   -0.49712116612481
C         -14.53538603234737    5.45256280129858   -0.33724046815861
S         -15.58485757035021    7.92826832607576    0.35171084012130
C         -14.88320934807714    9.26870637406990   -0.51708075001159
C         -13.91246092674214    8.91519585326041   -1.39356507838798
Br        -15.54605629447672   10.98903893326264   -0.18744380416892
C         -12.12257773952652    4.37461891701343   -2.86152210454356
O         -11.27965958904565    4.53527361519246   -3.73797185839247
C         -12.61802657812419    3.07370864923543   -2.38921878708618
C         -12.33058460066578    1.90166946307216   -3.03498801325210
N         -11.47742902789780    1.87448732128906   -4.07031983039326
C         -11.20268589954534    0.79261714493647   -4.85425927739163
S         -12.32431748276019   -0.52991591814784   -4.96133609858982
C         -11.29973448621516   -1.28215312403145   -6.13716763728155
N         -11.70392060197679   -2.52444938197804   -6.65647107519095
O         -10.98421336883053   -3.04980409032188   -7.48092542360518
O         -12.75322391128852   -2.97289715176625   -6.23489761667814
C         -10.17433563265825   -0.56173356992455   -6.42507913800459
C         -10.08323315849617    0.63245742692181   -5.67962391429898
C          -8.93270925080471    1.49419153456104   -5.74617092447979
C          -8.59646630661025    2.38863570617506   -4.79489545841613
C          -7.48785229570721    3.27869466949295   -4.83617719809754
O          -6.64027175389170    3.31188344834902   -5.90218148054555
C          -5.78900606945622    4.30940840282792   -5.74449859729698
C          -6.04518819964747    4.97746974284689   -4.56812117394818
N          -5.37602793947106    6.11425933500799   -4.07265101161927
O          -4.38924063006255    6.49453981530957   -4.66149932298542
O          -5.84883567137992    6.64044025794652   -3.07592035561850
C          -7.15028056905849    4.30364559537549   -3.94922772469417
N          -7.71950373372842    4.68284605666988   -2.77403534327856
C          -8.52795827315379    3.94859220249045   -1.97368310297739
C          -9.34806801506339    4.50822612948625   -1.03842953304605
C         -10.22164250218918    3.84928552791756   -0.13505986178910
C         -10.97124106577860    4.69584953672166    0.62394813159682
C         -10.72832820950134    6.06410756737505    0.36510868820495
S          -9.50741859418229    6.25249103590650   -0.86445183477178
C         -11.32989728051315    7.18177266746436    0.91477190290462
C         -12.37122337332032    7.26814289228059    1.86078656225147
C         -12.75867471687755    8.54874084977500    2.13652608152266
C         -12.03217963381091    9.53406912668508    1.42946239427040
S         -10.83955479672296    8.78099838159580    0.40348623557398
C         -12.16097002798476   10.91026335752819    1.41086116072109
C         -13.10592130232166   11.63830047576656    2.12250524406605
C         -13.33101265439866   12.99639373616380    2.03849741951161
C         -14.07867872616925   13.66225996327798    3.12920688687631
O         -14.69503361972070   13.12138010061156    4.02162725222095
C         -13.86253556510488   15.10985090104188    2.92658562792916
C         -14.24375080515847   16.15486778922041    3.71583026601151
C         -13.87382451329298   17.46762200596014    3.34367930804006
C         -13.10811430588906   17.66619937788424    2.15926214931631
C         -12.72954193365772   18.97451025831667    1.79888014283140
C         -13.09653225930754   20.03669388328990    2.57682003462540
C         -13.85545390633980   19.83950197397198    3.74684871136439
C         -14.23721942063556   18.58215418278941    4.12359633216824
F         -14.20047479273549   20.89960028612242    4.49233318726198
F         -12.73494071351588   21.28083706142417    2.23209656506867
C         -12.73547113407411   16.56212867763915    1.35714326418910
C         -13.11433896931240   15.30160753284382    1.73077650573662
C         -12.89035527430248   13.99515333433393    1.10484543733652
C         -12.50698564046171   13.82913998208235   -0.20719162618390
C         -12.50188485091817   12.62310590422254   -0.92996805033091
N         -12.49840693923812   11.69800583326144   -1.61281904247691
C         -12.15494188868645   14.89494882745439   -1.06072701770683
N         -11.84060886939537   15.70926308247734   -1.80735963289743
H         -12.18419093737419    7.24850688034767   -2.92996345040976
H         -15.19772800077991    4.98280501877320    0.37074575040664
H         -13.36619056289028    9.62596667059846   -1.98814000403757
H         -12.77659969228299    0.95939497802164   -2.74318038993378
H         -11.09933844582262    2.80035661177474   -4.32888582915147
H          -9.43367692765499   -0.89765051494334   -7.12818312294029
H          -8.28579208983862    1.35351350834600   -6.59954350054464
H          -9.19987517015281    2.48929413218664   -3.91076141219658
H          -5.04718604001550    4.48718365145640   -6.49838793303936
H          -7.49568726261917    5.63821355253969   -2.48830995704341
H          -8.49114462403636    2.87410162322495   -2.07738665724620
H         -10.26903399939702    2.77573170660691   -0.07948156953683
H         -11.68853068859208    4.37931083202304    1.36006285622222
H         -12.81120076243023    6.39384264673992    2.30693981207188
H         -13.53894636163682    8.80330377901863    2.83095168916616
H         -11.46056167269364   11.44379096423826    0.78557887891576
H         -13.69749434217743   11.13146069234169    2.87615079951265
H         -14.81635678680158   15.98392212843832    4.61464721739241
H         -12.15088182795949   19.14294675010212    0.90406364478900
H         -14.81771852519845   18.44800689864130    5.02289182891668
H         -12.14819267941208   16.74597689812406    0.47213784300889
