90
 SCF done       -167.632450988422          0.000598057143
C          -3.07061689274113   -1.00840690377632    1.78951884172278
C          -1.93283629201700   -0.68962269519727    2.48324059293285
C          -1.07963365943393   -1.63943002151460    3.08247462494301
N          -0.34211490237384   -2.36699119911204    3.57683383726806
C          -1.47286510670912    0.62458719108950    2.70851032638344
N          -1.04652394066952    1.66673195506250    2.93414278280407
C          -3.61979798400443   -2.34590483509939    1.61291231343213
C          -4.87123492369009   -2.24173183936104    0.95740531795031
C          -5.64152432968984   -3.33758283660215    0.65371655637147
C          -5.15467020169510   -4.59773172453258    1.01602191308166
C          -3.90252494441020   -4.69225720069019    1.66928374050754
C          -3.12308393308505   -3.58370864126192    1.97566844636352
S          -3.48836368327938   -6.34235253416396    2.02064527406018
C          -4.98168821059072   -6.87580135355836    1.29603508921925
C          -5.75313348652201   -5.87166179264128    0.81577579267822
Br         -5.38055069365008   -8.70687070989065    1.23865574149769
C          -5.16588086696105   -0.82551693866666    0.67888225744964
O          -6.12510587972010   -0.38927814107474    0.07469185175413
C          -3.99562641093981   -0.06977336820241    1.18795787685624
C          -3.77193958926614    1.25675949922192    0.95816301271879
C          -4.73553846198635    2.19869240261356    0.52822336026665
S          -4.21650740022020    3.45479084451299   -0.55930069419436
C          -5.79529377265511    4.11423869681652   -0.70575003470402
C          -6.70822350573593    3.40663004410962    0.08079613488373
C          -6.09760475254290    2.33819587735223    0.81177891466118
C          -6.89293692568235    1.62727143388378    1.75203426226453
C          -6.33904459152836    0.71008157290475    2.66971188135894
N          -5.92880921084344   -0.01958111751747    3.45463393879047
C          -8.24667671077039    1.88046019057164    1.82273709428798
C          -8.85334283450497    2.83709318376972    0.99436845705911
C          -8.10377443552240    3.60635658030521    0.14988627991052
C          -6.02598553190894    5.22833916723268   -1.59665407512240
C          -6.66930059990446    6.36401706174952   -1.30832668524503
C          -7.22153917947902    6.72270452249984    0.03423783976172
C          -6.84892822893323    7.42239258309667   -2.37557507705230
N          -8.23299485332384    7.80093286340111   -2.52441357627435
C          -9.16356222565708    6.98607532509678   -3.05483322172017
C         -10.50073468964420    7.23586697310151   -3.00417867661128
C         -11.47443377427465    6.43412935405231   -3.61932752193950
C         -12.81720745356545    6.71448208215579   -3.59040926193515
C         -13.86766855067283    6.01939419171785   -4.23333440593798
C         -15.09625706689543    6.58811384793295   -4.07421226212938
C         -15.08365440277514    7.75927656045570   -3.28439971627230
S         -13.46931686295184    8.11010247863405   -2.73457783440857
C         -16.13473704402076    8.60599826276416   -2.97684308298583
C         -17.46208173173321    8.59514072749991   -3.44472134904987
C         -18.19208495470141    9.67249269257957   -3.03303764364902
C         -17.47953944475690   10.59525363396114   -2.23142650971921
S         -15.86456404171000   10.00677393577023   -1.96164314329688
C         -18.02098059868330   11.74466183165739   -1.67279000230914
C         -17.43133159945022   12.71898701709349   -0.87965022666226
C         -16.10857399901712   13.04441064723992   -0.60952117152885
C         -15.82299650919651   13.75196035684935    0.66715932728119
O         -16.63335918423192   14.20980083983424    1.44401020460692
C         -14.35421043209652   13.73322417712365    0.78998337432895
C         -13.41665657242519   14.10590691643021    1.69311367491157
S         -11.82939326294504   13.73599603765891    1.11599704288436
C         -12.44446837091551   13.08224372952718   -0.36508350421053
C         -13.79915452401835   13.14572848201957   -0.39300354157387
C         -14.88265457559662   12.81528099259958   -1.30510957183666
C         -14.69387177216553   12.50165111767139   -2.63873290360459
C         -15.72261028243797   12.49473375014314   -3.59360898716751
N         -16.54284490559491   12.50232210743010   -4.39857582611105
C         -13.41300567084458   12.24004215343160   -3.15106070306828
N         -12.37474246482326   11.98179444932119   -3.57195416020490
H          -6.59165929299665   -3.22619678316295    0.15524120337319
H          -2.17441069970199   -3.70677739455832    2.47094930214669
H          -6.70444747307079   -6.02150818585321    0.33876090903129
H          -2.75908451388770    1.63325299139467    1.03769903356246
H          -8.84786075898451    1.32813420257652    2.52967967382155
H          -9.92222002761310    2.97413606489096    1.05028671232544
H          -8.56051740236536    4.35836028273666   -0.47331175701831
H          -5.56317912706810    5.12731418724451   -2.57172122835889
H          -6.91519067419392    6.00933498832316    0.79289212694241
H          -8.31066557098149    6.76042163119377    0.01516832199232
H          -6.86418872017527    7.71197095174381    0.31969870433096
H          -6.47642600792625    7.05086451999090   -3.33476425709444
H          -6.27941411819628    8.31712870037115   -2.10974984630886
H          -8.56645791634921    8.59344201546021   -1.99636975895615
H          -8.78024322759659    6.11137697131346   -3.56330158427236
H         -10.84660154592228    8.11968032657272   -2.48391770112189
H         -11.15420239682705    5.55648542974347   -4.16540412415485
H         -13.68069350447633    5.12905925694207   -4.80800996864909
H         -16.00460448219807    6.20448243168779   -4.50249696699315
H         -17.83544639353591    7.81914846135945   -4.08841070373659
H         -19.21618924742494    9.85120052107231   -3.30786017657272
H         -19.09052011110687   11.84127905172511   -1.81701299929188
H         -18.12787416302987   13.30935559419471   -0.28954005717841
H         -13.54074576113553   14.57097669498764    2.65026853895166
H         -11.76077296822434   12.69875059899216   -1.09510600352911
