115
 SCF done       -220.452532938131          0.000476839189
C          -7.38143070552873   -1.87392173991221    1.79483488464511
C          -6.59212356318668   -2.74415494019781    2.49696008014859
C          -6.76711392865182   -4.14433888216779    2.50824217127185
N          -6.85526927511757   -5.28771342594187    2.54937777556279
C          -5.50740600402738   -2.36065890521676    3.31396740628708
N          -4.62666276031377   -2.11463636742699    4.00812175579243
C          -8.55545806388601   -2.22487556875621    1.00803354791063
C          -9.14699763067787   -1.03994123011829    0.50215400172007
C         -10.28927328021187   -1.04988136023661   -0.26064708141293
C         -10.87804047342297   -2.28743394768529   -0.53892108714155
C         -10.27413983767899   -3.46733417782090   -0.03982687058530
C          -9.11961780898937   -3.45789406861125    0.73128237980973
S         -11.15889179417272   -4.88645934679289   -0.51108897403753
C         -12.31344142410146   -3.89039755221021   -1.35644358495771
C         -12.05167448388032   -2.56292093898629   -1.29158757750038
Br        -13.75251018255448   -4.69671524801901   -2.24717067811601
C          -8.34232694461575    0.12634712216070    0.91199608942915
O          -8.46774190472750    1.26801220494360    0.53474749093546
C          -7.24684222806881   -0.42525642861291    1.76075116909906
C          -6.25553846767494    0.34388447238067    2.26530299259928
C          -6.30507763756936    1.79628317256475    2.25281813057651
C          -5.30241035849792    2.50075842460445    1.57242970452221
C          -5.34279195567045    3.87074513416285    1.43125666333889
C          -6.37449452442033    4.61114974329702    2.00288770931175
C          -7.33402816790092    3.94633872061288    2.72832676581954
C          -7.30902847463032    2.55002763218454    2.86512372877799
N          -8.30581978106711    2.15331715910869    3.73697966019564
C          -8.57433016336889    0.82909045533668    4.21773815630873
C          -9.03361286185715    3.22753796857906    4.19347165752508
O          -9.90867926956363    3.16854905361779    5.01902141690044
C          -8.51385096143271    4.47367617525985    3.48467387129639
C          -9.62237587313441    5.01538945267199    2.55466116716739
C          -9.98115749220015    3.93882284954002    1.52341090528716
O         -10.46591133609373    2.85578810885835    1.74583291280290
N          -9.64385487104486    4.42057321386761    0.29058035706472
C          -9.77941433223405    3.66350527401056   -0.92274361731486
C          -9.13846020412231    5.70652607291967    0.36673444123717
C          -8.67817150957615    6.50919397420305   -0.65412335704583
C          -8.21897010133620    7.79447692236237   -0.33527543084755
C          -8.27060409831226    8.23677094723065    0.99072521478958
C          -8.72015076521493    7.41448475601033    2.01329725457886
C          -9.14617680852576    6.14301542748686    1.69923777854875
C          -7.66935394488081    8.68593920479910   -1.33686958476079
C          -7.24531963417141    8.30781707596004   -2.55375331449014
C          -6.64396960087824    9.15926859936193   -3.54407594104734
C          -6.09741825325489    8.61937448147961   -4.70690547627788
C          -6.09329228343416    7.26912067049202   -5.04893990900818
N          -6.10729978176979    6.15051085531767   -5.31243702822569
S          -5.38103617013096    9.80472808445972   -5.75068250047548
C          -5.82007750768065   11.07745950331649   -4.65150839240295
C          -6.48670356774093   10.56864532128829   -3.52629042452688
C          -6.92850647202066   11.43924240421582   -2.52096523118445
N          -7.26607031883039   12.20439931590268   -1.73287157611668
C          -5.54133676050435   12.43516510814936   -4.88373070566843
C          -4.82742961963677   12.96749440106382   -5.92617324759040
C          -4.57337815957114   14.34987525080654   -6.13262754729654
C          -3.80921249821213   14.62034037739345   -7.22421880123039
C          -3.40864738987362   13.46759691502236   -7.94005815864095
S          -4.05946290356779   12.02831158234492   -7.19111478863869
C          -2.60279087820180   13.39425158179689   -9.06026887962273
C          -2.00604407368634   14.45949642610889   -9.77361888320884
C          -1.23908579871712   14.05230343107213  -10.82252317989803
C          -1.18514299462214   12.64683030645157  -10.98897717001735
S          -2.16833861082028   11.85988217533731   -9.77743204382873
C          -0.47911799750253   11.96189543771939  -11.95462165949478
C          -0.43933774088996   10.57016492705480  -12.03118640967017
C           0.18776101334071    9.78173321047475  -12.96594155381954
C           0.77802310950989   10.07287454608109  -14.24608114069065
C           0.44348018534891   11.09733290406584  -15.09993942323612
C           1.04582229309797   11.30045149067665  -16.35738863003783
N           1.51782673552879   11.52858250470356  -17.37909954865726
C          -0.61191189653753   12.00498666865618  -14.88165423307538
N          -1.48588156483558   12.74370212188421  -14.78358994747254
C           1.65222623935551    8.95086105167459  -14.58743417629651
C           1.44467803865052    7.91073688901756  -13.64671582231753
C           0.47345882790648    8.36460843264359  -12.63086268067589
O           0.03238608731958    7.73766931963783  -11.69336486928975
C           2.09471136803589    6.70379093283020  -13.72391775356476
C           3.00094543489350    6.51650466913460  -14.77353896923338
C           3.21178058542537    7.56558453287746  -15.69912642494788
C           2.54810972994464    8.78507400167918  -15.62531531872712
S           4.37950170594192    7.12605373438559  -16.90802313629374
C           4.56233468062504    5.55809399615687  -16.16693353759356
C           3.79167607397247    5.37236513823362  -15.06920922637324
Br          5.75557753938523    4.31688153879285  -16.91063541215233
H         -10.72168632162924   -0.13033566638587   -0.62177274686124
H          -8.69696939623376   -4.38271452190324    1.08684138413191
H         -12.66029913311096   -1.80799854420671   -1.75473933361931
H          -5.34410985339038   -0.10603395678843    2.63843685934377
H          -4.50589479628934    1.93625510279356    1.11074446162057
H          -4.56946288748872    4.37399333264616    0.87214151475431
H          -6.40645977013533    5.68415726439162    1.89355618268020
H          -7.64786328684270    0.33341047878230    4.51490890025661
H          -9.08175223121422    0.23046825930783    3.45648945389806
H          -9.23506324299204    0.93278544089961    5.07952854766367
H          -8.24893345780767    5.24865094401277    4.20854801417962
H         -10.49470136125848    5.25904356262534    3.16760900186239
H         -10.11723197865694    2.66867333679908   -0.64113719520823
H          -8.81491713984224    3.57966302970976   -1.42517723209675
H         -10.50463512758929    4.13164361140492   -1.59211108342334
H          -8.68370395643432    6.16001521413451   -1.67332632489213
H          -7.93235999242394    9.23579852665572    1.22138887695638
H          -8.73396732785772    7.76767974202098    3.03332708880311
H          -7.56579573747817    9.71772612707294   -1.03162872838391
H          -7.30094965172376    7.26828221968850   -2.84872796527754
H          -5.92943417999164   13.12814651110208   -4.14740034683031
H          -4.96604512044430   15.09277171930368   -5.46159769812544
H          -3.51648520903412   15.60870227504475   -7.52842203705826
H          -2.15614740182873   15.48685501409575   -9.49523375674098
H          -0.71073486520185   14.71286828038490  -11.48627720955494
H           0.09067047556490   12.55768637435780  -12.65225130555421
H          -0.88494167730028   10.01892289742385  -11.20728892342434
H           1.91023328245696    5.92721785998056  -12.99835777351881
H           2.74618142179541    9.55556397400619  -16.35181259794722
H           3.77968900895393    4.46700016155569  -14.49029635140464
