88
 SCF done       -174.764979853164          0.000981373858
C         -10.76735443183827   -4.32142450900503    0.46504275204430
C         -10.72157967276938   -3.75695121539712    1.71650295575378
C         -11.84877332891899   -3.57267107810469    2.54422858178732
N         -12.71653265461364   -3.38930472749336    3.27459053884848
C          -9.58222275043189   -3.25129679919246    2.37111207193604
N          -8.72445706550144   -2.79459354301191    2.98618307584919
C         -11.99024269309094   -4.79297814354820   -0.18013189729844
C         -11.65828153788296   -5.31006467745452   -1.45476810443627
C         -12.59231940364762   -5.83824502029633   -2.31166396413898
C         -13.91828691186900   -5.90344336961342   -1.87271199567072
C         -14.24320858314867   -5.37539761831702   -0.60091178462190
C         -13.30371659974106   -4.80432610910767    0.24887038203701
S         -15.93265770027333   -5.56545903671364   -0.24762604736076
C         -16.16576036336299   -6.37640805923358   -1.77719648862139
C         -15.04271234647901   -6.47893432170050   -2.52575340358115
Br        -17.86981296506958   -7.01362112336530   -2.22385186448958
C         -10.20145951829205   -5.21597760452203   -1.64954884192665
O          -9.58848274923376   -5.61122802730877   -2.62630927723280
C          -9.66584140287625   -4.57773851040993   -0.44198384051601
C          -8.34362780433896   -4.28156874478067   -0.19805201908786
C          -7.20626492797465   -4.45158992140342   -0.99913343504308
S          -7.22435104718796   -4.87559870900489   -2.69615446497105
C          -5.56357476735196   -4.49375680824159   -2.83462850522971
C          -4.97651123976313   -4.09255936317890   -1.66928031663701
C          -3.53481622694900   -3.73446834277120   -1.53091418639059
C          -5.89628349573491   -4.09976124196666   -0.59093901018692
C          -5.50756898833148   -3.78690806583623    0.75001453044703
C          -6.05476487832805   -4.33355407725958    1.86133907748348
C          -5.81554937988221   -3.87074750781959    3.18086950763346
C          -6.61631516473854   -4.27822932752548    4.19537707660059
C          -6.67629053879592   -3.68321145094711    5.47876723348530
O          -7.76710895212872   -3.97756942907405    6.22876176034353
C          -5.92324757972079   -2.75116302693856    6.16889690039210
C          -4.71483343991405   -1.92730389485763    6.11302645487876
O          -3.85952774509336   -1.83121028601761    5.26889552223603
N          -4.74920464717323   -1.21444402659325    7.30715105181627
C          -5.85206784131940   -1.47148000097065    8.12645609864209
O          -6.05484265359907   -0.94656720087986    9.19086238855927
C          -6.61088551066394   -2.47238656195043    7.37759874008964
C          -7.77473667415309   -3.22808324172026    7.36683646460181
C          -8.93949865553773   -3.25537826479873    8.16953655205261
C         -10.02714912311701   -3.93382308448287    7.69517679381758
C         -11.33986345557666   -3.97093819265257    8.17627500794429
C         -12.32673468206255   -4.57408437778850    7.42558596338980
C         -13.72100182613903   -4.63588395309082    7.65977640927506
C         -14.43032640495779   -5.24680347151879    6.66716085401575
C         -13.63082555854986   -5.71148141289707    5.59926624141269
S         -11.95243413357643   -5.35738251629297    5.89904241485725
C         -13.99964776098435   -6.35439123607287    4.43286602851669
C         -15.28224686918948   -6.71592196261603    3.96895819924219
C         -15.27458032877148   -7.33818841111372    2.75745260927789
C         -13.98244345903799   -7.49555192367935    2.19220650981729
S         -12.77528854008503   -6.83583415838961    3.27478794150116
C         -13.68410348807484   -8.03044761106402    0.96675217468408
C         -12.41325159036046   -8.11626814371604    0.37311139592276
S         -10.89272317063963   -7.67491774638565    1.13727898047006
C          -9.94758941406297   -8.00034501090710   -0.26419395185521
C         -10.74475369789880   -8.44237099731650   -1.29341886334594
C         -12.12171723743823   -8.50283129933250   -0.92356475038607
O         -12.88747121286317   -8.87769884423211   -1.96836601027103
C         -12.01498303252836   -9.05240037943536   -3.00226596338579
N         -12.57375808815601   -9.35984428411118   -4.26467501003380
O         -11.80011456519394   -9.66595618958705   -5.14966487342135
O         -13.77976207529172   -9.27274317891673   -4.37813927952185
C         -10.70930884230450   -8.81705768812388   -2.66521293151666
H         -12.30550832113956   -6.19904566910740   -3.28730523695884
H         -13.60978066121885   -4.41075762664588    1.20309488685457
H         -15.00186067783887   -6.96916002482492   -3.48206776985637
H          -8.13466095282467   -3.80779006775445    0.75363241620877
H          -5.07996796095064   -4.59732590953293   -3.78746926026884
H          -3.02755021829522   -3.83358348577292   -2.48655327550865
H          -3.04845756185362   -4.38414972238821   -0.80492132810817
H          -3.43019124924420   -2.70620562023435   -1.18640821943631
H          -4.70418104955410   -3.07096091484690    0.86365152431322
H          -6.77123430554638   -5.13907282950525    1.75893367885193
H          -5.07527585963913   -3.10135055758193    3.34724327893526
H          -7.37286275203485   -5.03106200064689    4.01757115116080
H          -4.03510056201276   -0.54682171568550    7.56076298344148
H          -8.94763447359087   -2.67087441309188    9.07519110207098
H          -9.87132043230727   -4.46865166224295    6.76538503578494
H         -11.60430888641763   -3.48226441109325    9.10280496656824
H         -14.15940363344055   -4.21373899883176    8.54696640658871
H         -15.49863503014179   -5.36968238849414    6.67282802935424
H         -16.17109437966768   -6.50280061586253    4.53492626667586
H         -16.15399125947817   -7.68211495319601    2.24275135166610
H         -14.50012647927731   -8.40488139635583    0.36276352544612
H          -8.88785857104191   -7.85509366421603   -0.24380455369121
H          -9.86440132725657   -8.87397228985309   -3.31917312069512
