83
 SCF done       -162.140869903406          0.000744408363
C          -3.56630201925668    2.19700178825910    2.52278504155876
C          -2.71056830997110    1.53783603593534    3.36068092807587
C          -2.66059067368733    1.74308326112429    4.75702098007194
N          -2.57972684621646    1.86574544514718    5.89511329473019
C          -1.73098424052939    0.60047117623659    2.96238589175379
N          -0.89189122320968   -0.14904487047127    2.73655355678237
C          -4.49692993597226    3.24531435802916    2.91147423676519
C          -5.06169637411679    3.80879386515176    1.74215910780670
C          -5.97057267833372    4.83905081998050    1.78023094150841
C          -6.34007539364534    5.33815382713898    3.03262708243843
C          -5.77633396381609    4.76322459306437    4.19809792703611
C          -4.85924765722407    3.72180790899173    4.15988253498917
S          -6.37498321641273    5.52624309255383    5.64001329572886
C          -7.35621714240592    6.59451821420703    4.67198011419560
C          -7.24538626188939    6.39089586135452    3.33763156126843
Br         -8.43427555784191    7.87672060456069    5.51393549097940
C          -4.53224675202587    3.12544913284835    0.54246133647588
O          -4.82798667070377    3.38124414757738   -0.59802956682685
C          -3.63814262941285    2.04627299838918    1.06995783551772
C          -3.13021135478477    1.00760404607216    0.37400219302382
C          -3.13445494045094    0.82774713199996   -1.06918822515732
N          -3.12250838940308   -0.44509413744931   -1.47836250524958
C          -3.10684874937838   -0.64647394232887   -2.78533996078404
C          -3.10262548228641    0.39369914310465   -3.69683957664949
C          -3.10356461919805    1.69806495688393   -3.17391155849325
N          -3.10109522796656    1.88911323727145   -1.85312317709502
C          -3.11319229859708    2.85284891908884   -4.03710694557852
C          -3.30185122350682    4.09766894501468   -3.55474662480752
C          -3.35857023833672    5.30724754902903   -4.32220055593900
C          -3.24314071523634    5.37873303503813   -5.66231450735981
C          -3.30998839131060    6.57455154154024   -6.46099981001315
C          -3.47878100863877    7.87084508500817   -6.02407348361169
S          -3.52984411115091    9.01270535830453   -7.29455349682449
C          -3.31241448322311    7.75763328494699   -8.46848174695187
C          -3.21270262385948    6.53139626994598   -7.87352482047677
C          -3.28903490083323    8.01911407613017   -9.88485512932291
N          -3.56918666489268    9.25017704967066  -10.32032353267453
C          -3.58792597002912    9.42871853121270  -11.62650997754162
C          -3.34881218137065    8.40063934698555  -12.52881028616060
C          -3.04375328788735    7.15048194137943  -11.97977799265916
N          -3.00386291008581    6.98068477953105  -10.65998143156513
C          -2.77181615134704    5.97608497289367  -12.78757533405014
C          -2.35801263545546    4.83631627085808  -12.19966642479095
C          -2.08884836220598    3.61234078427737  -12.86777075301682
C          -1.84732926081933    2.42408801433710  -12.25538053920703
C          -1.92057393424340    2.06071380178238  -10.85245821473746
C          -2.80050571380347    2.55991129622969   -9.92869069123172
C          -2.80535083778951    2.19882243696036   -8.56725556475457
N          -2.82982709956826    1.98018343444255   -7.43979385022023
C          -3.88227866244993    3.41262750572528  -10.24936211253163
N          -4.82430503940297    4.03380773272305  -10.45497871251685
C          -1.03428457323140    0.92029308054561  -10.65902422224137
C          -0.62910502173546    0.43768843561101  -11.93077897526161
C          -1.18809873053441    1.30607533198830  -12.98733211659368
O          -1.09072346206262    1.17936602865739  -14.18440670742284
C           0.17715883930411   -0.66523266264937  -12.07579132246634
C           0.61112363991621   -1.31504828261174  -10.91541146021842
C           0.20893369204893   -0.81928686030698   -9.65089587215799
C          -0.61301715038771    0.29069186095665   -9.50295999852611
S           0.86721294060513   -1.76813301923926   -8.35366576497839
C           1.66151196819426   -2.80541376080967   -9.50879279968819
C           1.44576827768835   -2.45968071284066  -10.80084490244465
Br          2.70032822325629   -4.24260194650821   -8.90034583174743
H          -6.38180312188851    5.24690439479864    0.87010682937758
H          -4.46367657763421    3.31356872048700    5.07477274512391
H          -7.77923498652625    6.95852155752395    2.59752426768268
H          -2.69553262949037    0.16856801235740    0.90218132755454
H          -3.09708040280089   -1.68310792075600   -3.09912415461011
H          -3.09712589649326    0.22271389196913   -4.76103594489882
H          -2.99434506665504    2.65285161465128   -5.09130514139425
H          -3.44377681554151    4.18931456089079   -2.48642532641907
H          -3.51402724757234    6.21662754889055   -3.75776591520342
H          -3.09725925516628    4.47097941979485   -6.23121380088352
H          -3.57838323247040    8.21423067993698   -5.01364871504099
H          -3.09571636051549    5.62664913002558   -8.44058148717295
H          -3.81378028994557   10.43377203562709  -11.95976587038616
H          -3.38776846505549    8.55791071953517  -13.59408199744664
H          -2.94916387970322    6.04261980712899  -13.85147350491235
H          -2.20589778297436    4.88045744695152  -11.12992319044342
H          -1.99286370062273    3.62719484968995  -13.94767008053373
H           0.46507378564845   -1.01662851561994  -13.05406664820775
H          -0.88849926386274    0.63829077569796   -8.52083295011542
H           1.85893756267971   -2.98904088063078  -11.63975671000936
