125
 SCF done       -228.638171262218          0.000917684002
C          -2.23036760675784   -1.49343799231254   -8.34144989006090
C          -1.26328738855677   -2.36488664692566   -8.77045447216854
C          -1.52765555945691   -3.63426437157272   -9.32350031174660
N          -1.68363136075296   -4.67513740172759   -9.78150351959092
C           0.11840365836487   -2.08870364909014   -8.72845457988801
N           1.25059317287130   -1.89920550366096   -8.71601898145806
C          -3.67190471341880   -1.72101450160442   -8.38328293673137
C          -4.33704881183438   -0.56521354546370   -7.89411318134723
C          -5.70321950804333   -0.49092662934670   -7.76446054303591
C          -6.45011562572969   -1.60586457602339   -8.15729367193746
C          -5.78393710514145   -2.74545515689231   -8.66750851851772
C          -4.40024812964604   -2.82527069271171   -8.78135244095229
S          -6.90508128136168   -4.00080670590264   -9.09528593791650
C          -8.23488660159190   -2.99275217800340   -8.58427245123494
C          -7.86052466637742   -1.77815022724177   -8.11838658801034
Br         -9.98866127785180   -3.64182544359010   -8.72009599294649
C          -3.33624055791407    0.44790124537727   -7.55533935038245
O          -3.52707902075667    1.59108990499991   -7.15174131584620
C          -2.02661818854969   -0.17264680698456   -7.78989004139718
C          -0.85977441342183    0.46436106428138   -7.45282126101759
N          -0.88603842441377    1.71431767089544   -6.97022578326782
C           0.17782612485939    2.44345927532146   -6.54889741187825
S           1.78036062365160    1.76726028445240   -6.57334423669470
C           2.40935975434313    3.28235498991009   -6.01648000744877
N           3.79203238658174    3.38623490067354   -5.80929370370311
O           4.22489290822805    4.45604312408234   -5.42486129156904
O           4.45634444381844    2.38983513481218   -6.02988967957245
C           1.44771430706140    4.23775892487561   -5.83588790300734
C           0.14543388434138    3.77575240141710   -6.11939519557368
C          -0.98861089946149    4.65597053733515   -6.00591182612116
C          -2.29208401374191    4.35552348330882   -5.83665685014070
C          -3.31501922841579    5.34821552068628   -5.79764141030842
S          -2.95343828709070    7.02964676803225   -6.06020334231220
C          -4.63598888839166    7.46854124711863   -5.97742695171884
C          -5.41459777589602    6.35859532141455   -5.71270785255415
C          -4.67387273257798    5.16439237017616   -5.61171124223667
C          -5.30264884479774    3.82776111506127   -5.37922510283631
C          -6.77952800300629    3.89354534573252   -4.97795254261550
C          -7.43436665499398    2.52827541969237   -5.22327155113061
O          -6.83801672638577    1.58663075178818   -5.66992918302567
O          -8.71543086493473    2.43212622141973   -4.88571724177488
C          -7.52113827886758    5.00985148236522   -5.72879194858849
O          -8.87607781789067    5.01518959055559   -5.29659863395342
C          -6.88180646874823    6.36541297643840   -5.42256125183061
C          -4.93785648799552    8.85065081314941   -6.21508692582266
C          -6.04812375909524    9.34874471869713   -6.78705140508765
C          -6.28489882795429   10.73916937415628   -7.10636297612489
C          -7.31030058713910   11.04185804867251   -8.01604432953357
C          -7.52890005297037   12.34280567831093   -8.39909785019542
C          -6.76827136066470   13.38099095946778   -7.83066510185231
C          -5.77117870977327   13.09846711450625   -6.90715867462487
C          -5.52913305257282   11.78480156626718   -6.56216316256570
C          -7.24753274573939   14.64275740688800   -8.34945449163454
C          -8.31275885388728   14.38481660320259   -9.23064361813321
C          -8.52632862745130   12.89537283482822   -9.39071528979697
C          -8.13212316166491   12.55192064482858  -10.84809880627963
C          -8.11596960197242   11.07122957786002  -11.20269708336963
C          -9.96761260700416   12.47256663785490   -9.07491524668869
C         -10.41305544669556   12.92790294218749   -7.68967666388558
C          -8.96404210271292   15.41162932510603   -9.86449342528630
C          -8.54379820066313   16.73274992288524   -9.64528996604765
C          -7.46813933616465   16.97453434224123   -8.77835515672992
C          -6.82683184448075   15.94604416368827   -8.11986800318782
C          -9.14631644675364   17.83385052578273  -10.35052065564106
C         -10.37163592207029   17.83587807238514  -10.92013069444859
C         -10.91859348282115   18.93413516682330  -11.64172276624612
C         -10.27020182087590   19.86229267125376  -12.39492000641819
C          -8.92043516197486   19.92867155926818  -12.92098187001912
C          -8.11350809359016   18.87221965589037  -13.25448563838610
C          -6.84642519554852   19.01284502883978  -13.85636563903528
N          -5.80269091819560   19.07392888281456  -14.33048027202116
C          -8.47459995134039   17.51625614555088  -13.11953002421951
N          -8.71425422950093   16.39408965613736  -13.08701733729460
C          -8.67074687552632   21.31817430663720  -13.29241676462088
C          -9.89233780198748   22.03488691834887  -13.22666498281876
C         -10.95805420770345   21.13505829444794  -12.74153363269222
O         -12.13426605301443   21.38330625741295  -12.60672444490256
C          -9.98764490822475   23.36260489598246  -13.56630880488098
C          -8.82186884743782   24.01644464617639  -13.97875374620656
C          -7.60379748183879   23.29644685453455  -14.02359793681305
C          -7.50793860391215   21.95176032210999  -13.68797076932668
S          -6.28656066437545   24.30069181520017  -14.54792865839164
C          -7.37546630470656   25.65375632980306  -14.70458390004319
C          -8.65904505289205   25.37119722137979  -14.37862680710368
Br         -6.71371414345663   27.31108850296749  -15.28114974326133
H          -6.17757765331109    0.37967226877616   -7.34131052888135
H          -3.93727871185413   -3.72161970238514   -9.15894583436873
H          -8.54225180567565   -1.03183916637823   -7.75391683838990
H           0.10810270656194   -0.01168277372950   -7.54400798816600
H          -1.82973573302149    2.13298938824698   -6.93742888418039
H           1.67664718343791    5.23214533973587   -5.49714810535358
H          -0.72112455888032    5.70562936342260   -6.03930046984908
H          -2.64215127548991    3.34312026048067   -5.70704411392530
H          -4.75613750048261    3.28657121353055   -4.60403730480234
H          -5.21001905278745    3.22710414145214   -6.29045605650333
H          -6.87471733328467    4.10554788011966   -3.90574378691160
H          -9.10166157122760    3.31217744005636   -4.71353118177473
H          -7.47329898936656    4.81011528671083   -6.81075334096771
H          -9.34909320862612    5.72811303894084   -5.73812701096574
H          -7.03391372185396    6.58106913237103   -4.35853624513007
H          -7.39677005133268    7.14196926113584   -5.98638290885175
H          -4.11991619606593    9.52137732078447   -5.98668447574670
H          -6.82132405451824    8.67271803281970   -7.12593186214938
H          -7.91430362221265   10.23828439362807   -8.41190685337623
H          -5.19328528513722   13.89472157237097   -6.46242258219450
H          -4.75732119521863   11.56327241608590   -5.84139917395734
H          -7.13736707312008   12.96613519160348  -11.03088614736033
H          -8.82713765192169   13.07112892063557  -11.51059096555452
H          -7.36053628559505   10.54091892178815  -10.62896433592036
H          -7.87528578025040   10.96074468579027  -12.25765873629483
H          -9.08461060664976   10.60927186157803  -11.02970793147047
H         -10.04374605099666   11.38603823101515   -9.13355594518696
H         -10.63213183176080   12.89668564620986   -9.83009427148603
H          -9.76722939328526   12.50659183682074   -6.92194969058172
H         -11.43369760221638   12.60483488828756   -7.49722558847649
H         -10.37436795866731   14.01198703391733   -7.60985012616887
H          -9.76065346861793   15.21313493732353  -10.56348001291462
H          -7.14487224353084   17.99390107158393   -8.62105437731920
H          -6.00426904880502   16.15112364183583   -7.45136112605310
H          -8.55792576296063   18.74400072162784  -10.38923769567106
H         -11.03720864371722   16.99888564848161  -10.76040171134254
H         -11.98940655324919   19.09098795189593  -11.55008918529240
H         -10.93230348654951   23.88095940930520  -13.51722853696172
H          -6.55758501427826   21.44601005775477  -13.73171782852203
H          -9.45957191657447   26.08708178669637  -14.41778883907778
