80
 SCF done       -154.263596437525          0.000520812188
C          -6.92172935233002   -3.01085901489153   -5.17585563378729
C          -5.98196004070253   -3.78279372661218   -4.53959227011193
C          -5.94424409489813   -5.19120618185365   -4.60386345849107
N          -5.85139505240653   -6.33564001552747   -4.61899407167262
C          -4.95235242408173   -3.31010597026502   -3.69918317084763
N          -4.09834514909294   -3.01932724154807   -2.98748873120374
C          -8.04265299564028   -3.53053365771534   -5.95086979337243
C          -8.88871408315689   -2.45031493538791   -6.29577419406451
C         -10.04062376623176   -2.61299680801318   -7.02562069624567
C         -10.36861528375548   -3.90653257574954   -7.44525460663036
C          -9.51265581191725   -4.97991100696390   -7.10283321340299
C          -8.35173402167251   -4.81512590093137   -6.35726819928987
S         -10.09737160748126   -6.49003132716530   -7.73342246418636
C         -11.46585905903887   -5.66995517965844   -8.43712065026722
C         -11.48612164707827   -4.33475601611263   -8.21318847041214
Br        -12.73524913697220   -6.65380752499575   -9.40590905519118
C          -8.32193815933130   -1.19123306118623   -5.77018735267430
O          -8.83437574568641   -0.09520748981581   -5.86784140706038
C          -7.03501908553074   -1.56365895766146   -5.14494266624280
C          -6.02472270433533   -0.73924615501425   -4.71529859381445
C          -5.94288107816059    0.65588005764299   -4.59882712391537
S          -4.34746174263224    1.29320342998974   -4.15714547851409
C          -4.94615099076389    2.88380347895166   -4.18462147080053
C          -6.31702900745585    2.92788974244554   -4.50235871243435
C          -6.87558367757069    1.68640351060690   -4.73541958905604
C          -6.72025852403246    4.34586812581227   -4.47748206429233
O          -7.80145745978707    4.84084177748220   -4.67153115043080
C          -5.44425464248266    5.09549883846013   -4.13922701332147
C          -4.42543983692320    4.18304846484065   -3.97241919006928
C          -5.44796321567428    6.49991718982678   -4.04701273179705
C          -4.34032575164997    7.26405604169921   -3.81522132227870
C          -4.32047175078227    8.66813893088275   -3.72054365604430
S          -2.77042939252094    9.47620530925932   -3.49603655839462
C          -3.53426707157386   11.00005258822504   -3.48369447300555
C          -4.92243452233070   10.89216574404799   -3.63845379683119
C          -5.36791801669939    9.58888051602401   -3.77430351472581
C          -5.46835861793110   12.26598565307983   -3.59684024823310
O          -6.61409270871015   12.63308288773977   -3.67490058306354
C          -4.25232645586766   13.15060718335021   -3.42038228217999
C          -3.13472259271747   12.35919601525740   -3.35633747962717
C          -4.40631000140993   14.55806370458684   -3.34425949255579
C          -3.41206704251778   15.46577230076779   -3.22330856647228
C          -3.64408040569445   16.89157461062669   -3.14586136826871
C          -2.62715838845325   17.77310782924012   -3.05899091997061
C          -4.98833125329758   17.32735670710766   -3.16030275627561
C          -6.16092391802906   17.62775508415903   -3.16527713938463
C          -7.51547758782210   17.95835177555859   -3.17228959469617
C          -8.47740695304087   17.01248862290776   -3.25176035968627
C          -9.87664751236831   17.31894770442584   -3.25218818740306
C         -10.87721831581394   16.39052403077430   -3.32051594764640
O         -12.21477951234542   16.73636994887430   -3.31081334314216
C         -12.48013736674531   18.06842093928341   -3.23040541812465
C         -11.43896111776732   19.03884290703598   -3.16008327378779
C         -11.90625932742957   20.30850370194842   -3.08555297160348
S         -13.63173240492175   20.34115505697141   -3.09995151541310
C         -13.71747061179505   18.62172330886792   -3.20789029607463
O         -10.12609268176523   18.68309554286370   -3.16932376860052
C         -10.67234616523191   14.96162549867606   -3.40788459404445
C         -11.67348912052110   14.08321849245494   -3.45160059363551
H         -10.66643268895823   -1.76864379571070   -7.26865679320735
H          -7.73142863226920   -5.66470882071836   -6.12625552825681
H         -12.25508990911708   -3.67688050798532   -8.57493142878030
H          -5.10273098332527   -1.23781300154349   -4.43809200135034
H          -7.90153454422730    1.50371706290454   -5.00010185627204
H          -3.40315091834524    4.39614959312935   -3.72042456874040
H          -6.41227328082756    6.96836644255872   -4.18917502682599
H          -3.38393991315269    6.77135132118816   -3.70185941880186
H          -6.39552173694713    9.30340515759103   -3.90239466302119
H          -2.11934642974734   12.68665881476993   -3.22983803679902
H          -5.43050215716540   14.90692805380161   -3.39541547172287
H          -2.37927131544368   15.14839999574141   -3.18220476634945
H          -1.60238149755460   17.44385298440842   -3.04642656966816
H          -2.80521276119431   18.83248879434147   -3.00206466224131
H          -7.77301239721423   19.00617740237379   -3.10724599571687
H          -8.19319576026365   15.97497798235399   -3.31595616996470
H         -11.34531674802014   21.21721941614190   -3.02364672088179
H         -14.66424295895798   18.12554805289358   -3.24797187251459
H          -9.65246892656044   14.61541281572351   -3.43921686156430
H         -12.70246752261403   14.39648788556709   -3.42270429251758
H         -11.48260295351649   13.02725384444948   -3.51806004980609
