95
 SCF done       -186.841300246293          0.000580585528
C          -9.42516627402508    0.05648089136805   -5.04056368222824
C         -10.59657996577154   -0.29399363424141   -4.41183192318432
C         -11.63912303763574   -1.01563646089052   -5.02940253304899
N         -12.52411492282497   -1.60387642183631   -5.46465273563259
C         -10.96084096255714    0.02221734409987   -3.08761464547690
N         -11.34743314061317    0.25342652838339   -2.02911132513935
C          -9.12063694033712   -0.21408826079387   -6.44136164702286
C          -7.87318459410133    0.37740098294630   -6.75245767564186
C          -7.31343455756334    0.31557600435597   -8.00480732540674
C          -8.02087643907700   -0.36295326814520   -9.00294075801108
C          -9.26492133605320   -0.95558098413468   -8.68250568018370
C          -9.82945260046171   -0.89395531905240   -7.41417551344671
S          -9.97088019375452   -1.74451256691567  -10.06055582447650
C          -8.60556516149363   -1.27047346845613  -11.03566392266964
C          -7.66713863142231   -0.56014788969865  -10.36559866819125
Br         -8.54722661883114   -1.75741084426711  -12.84619144830664
C          -7.32492398543614    1.03402442238161   -5.54885992914466
O          -6.25246636212533    1.60461109820874   -5.48775912096355
C          -8.31635093810848    0.80580207444540   -4.47991527962482
C          -8.24602276422975    1.16425973716622   -3.15470294135644
C          -7.37075973026239    2.00449134982626   -2.45030657296358
C          -6.26926844952784    2.73235485947817   -2.83515356102886
C          -5.79212540925817    3.56963901742171   -1.77464371155277
C          -6.63297115570180    3.35843014189736   -0.69513721350986
C          -7.59798020704558    2.25625663444965   -0.97970758740787
C          -8.93471541808920    2.74424645105222   -0.42886341390132
C          -8.58341576516290    3.32591073972379    0.93708689695432
S          -6.98607854844513    4.22654710051789    0.72987102446852
C          -4.75470664001554    4.54342478857860   -1.80479140992536
C          -3.72046162385046    4.63012467751434   -2.68902054341192
C          -3.28018808872353    3.73116133334600   -3.70103492957104
C          -2.15256232386752    4.12546425705153   -4.34533353332576
C          -1.63412900903009    5.37050830625900   -3.90733085151525
S          -2.62604037591653    6.01223573806462   -2.61742775510819
C          -0.52165549822321    6.03067956743204   -4.37818526929792
C           0.40916835960170    5.59915497458711   -5.35291788335575
C           1.41970607658455    6.47550351510983   -5.59293146929221
C           1.34034668689509    7.67298707847129   -4.83418802020870
S          -0.07234595093117    7.61547210633530   -3.77648450022356
C           2.18205211516515    8.74296062991620   -4.88454245878796
N           1.96735944160218    9.87436510811927   -4.15912785947573
C           2.74032946471037   10.97485549919666   -4.12658979156333
S           4.25913170237064   11.03041660121842   -4.96296494231395
C           4.48368505977210   12.66564969821231   -4.40727154344865
N           5.65783791202348   13.30530113330989   -4.81043158472028
O           5.83190341333104   14.45843247676385   -4.46413858644548
O           6.42298719947650   12.64457142179642   -5.49726663037490
C           3.45681916224124   13.13068658821670   -3.63675273026488
C           2.42868456051279   12.18086997950902   -3.45940541112554
C           1.22361696409938   12.38932144731953   -2.72916896682721
C           0.82523377767707   13.57256917193370   -2.19292106727752
C          -0.39435771700072   13.69852134289445   -1.49490653528807
C          -0.88549331981401   14.79524001625061   -0.84754646386754
C          -0.28844649744862   16.06164841388352   -0.48754436122416
C           1.03156542456252   16.29952899358207   -0.19964284040310
C           1.52837566177841   17.55309368196109    0.21326225220715
N           1.98040321935418   18.55546425704335    0.54274273417499
C           2.03062279018255   15.30483135588570   -0.16670816492518
N           2.87151382665474   14.52808666127285   -0.07924625347582
C          -1.38130535248956   17.00223899841263   -0.25145877113169
C          -2.60396739951702   16.28438138318576   -0.23547143346988
C          -2.33579678544740   14.86329041159347   -0.53371329846646
O          -3.12901448740066   13.94897837202516   -0.56699750496012
C          -3.81283798752936   16.89133754096694    0.00263721639324
C          -3.81785270364235   18.27291525368376    0.22270297596809
C          -2.59399529489879   18.98259797133781    0.18868722431558
C          -1.36923964645527   18.36778570359306   -0.04292006315960
S          -2.83147839266311   20.68039906857413    0.47051801280059
C          -4.54752965173931   20.41705420815259    0.63304555965394
C          -4.92571782108616   19.12567645280426    0.48234535461390
Br         -5.67803736154591   21.87222520526947    0.98268877488340
H          -6.36149825189320    0.77977709892406   -8.20992341865808
H         -10.77900704390726   -1.36433288322897   -7.22253122999072
H          -6.76300392301687   -0.18929635967466  -10.81278911011054
H          -9.03591310807234    0.76764597244701   -2.53050569810413
H          -5.87462549817835    2.73871393453730   -3.83264304392279
H          -7.29477604800491    1.35721827352268   -0.42450156714577
H          -9.67242095817849    1.94829085558927   -0.33288311554239
H          -9.33971997368107    3.51999459542925   -1.08158564062490
H          -8.41998526922348    2.54267145964251    1.67780123055005
H          -9.31872490443352    4.03263885229717    1.31349555458138
H          -4.80592983138739    5.28808450382475   -1.01981490848110
H          -3.78563094520869    2.80500315858931   -3.90063847539866
H          -1.67805727828060    3.56071334444325   -5.12765919475172
H           0.30834512167315    4.64676158977457   -5.84090970794209
H           2.21811313817892    6.31268448253560   -6.29403692096729
H           3.05046386383725    8.73384535279721   -5.52511182749503
H           1.12331749618352    9.88296938924284   -3.59504702955987
H           3.46937395767625   14.11306872758094   -3.20254184424903
H           0.57658653341391   11.53300408926396   -2.58086562520514
H           1.43283374335394   14.45219143518895   -2.33103521456143
H          -1.07642318076097   12.85485311161303   -1.53647826604662
H          -4.72726360220515   16.31931291190312    0.01724719144407
H          -0.46368944032576   18.95102437028095   -0.06585716878346
H          -5.94318337682231   18.78639408348339    0.55026507223915
