86
 SCF done       -169.963812158255          0.000611201471
C           0.67578266304057   -0.42634499512753    0.19174730222504
C           0.59755695374297   -1.55311626351159    0.96394969173319
C           1.69407619799390   -2.10354109548386    1.66200661808978
N           2.55206222924834   -2.59310710921898    2.24587128381212
C          -0.58793213549060   -2.27062651313036    1.24062216066900
N          -1.50836278259572   -2.87587628019826    1.56114124333117
C           1.84957739870026    0.42353104724888    0.04579536437736
C           1.46725502890707    1.60896677644952   -0.62690663333557
C           2.34982753073540    2.62833575561910   -0.89186781797964
C           3.67532461534233    2.46858919946893   -0.47707069968682
C           4.05108823081714    1.27569507949141    0.18734777397508
C           3.15832270721730    0.24645913646267    0.45714349665843
S           5.73532678298712    1.28529638769934    0.61215355878412
C           5.90909612484066    2.87002569554913   -0.09449070232203
C           4.76651452518736    3.36757141874638   -0.62448817272796
Br          7.58095693117469    3.71829010642024   -0.06660163724735
C           0.02884179754193    1.55588787421101   -0.96245318770448
O          -0.60647379489599    2.44333488917779   -1.48267786285816
C          -0.42068474845381    0.19815089503677   -0.53666039439595
C          -1.56984784954703   -0.44310876198116   -0.88659798963946
C          -2.67970814078009    0.06238086094938   -1.60195536452943
O          -2.85277038910976    1.37226710552118   -1.90462352540823
C          -3.75444986926168   -0.64109793424792   -2.12572122656152
C          -4.33478898779522   -1.98150623184319   -2.28827071069532
O          -3.98725265485840   -3.05792329568118   -1.89162789897775
N          -5.48346022257671   -1.74244760617841   -3.05094721832307
C          -5.69414393231495   -0.41725988626091   -3.41148943344759
O          -6.60516388853482   -0.02022302072615   -4.09462665160393
C          -4.57606630948022    0.29523113661488   -2.78881478188237
C          -3.97994546407963    1.53835015207937   -2.61982918830275
C          -4.33583090800636    2.84731943445941   -3.05612092899767
C          -5.49443356413414    3.09491838994459   -3.70023300298846
C          -5.94853345947195    4.35506392486018   -4.22246221505641
C          -5.22121385565656    5.34764857550735   -4.76158083369259
C          -3.73982791032084    5.34058330144235   -4.93605744564336
C          -5.93218422898267    6.52753222110793   -5.37618817716096
N          -6.11622665407480    6.34125616772316   -6.80969457312016
C          -6.28558261603656    5.13218621032199   -7.37097867019539
C          -6.78375830177833    4.86957765568160   -8.60396719000545
C          -6.88252570661743    3.52856676174204   -9.04971410669930
O          -6.35383035017009    2.52933888500590   -8.29434434572010
C          -7.49663393170490    2.95717887147736  -10.15098138930961
C          -8.24526030018348    3.24417898640767  -11.36754764618663
O          -8.60326217481684    4.28286340725367  -11.86309243403309
N          -8.49475490979180    1.97688946314108  -11.90632252851473
C          -7.99190303356074    0.90727300519150  -11.17398505002082
O          -8.10343769618345   -0.25415057270821  -11.47221890146136
C          -7.34106169979356    1.55157789683574  -10.02788526786430
C          -6.62715312494079    1.32011928296374   -8.87162895699807
C          -6.16123613681371    0.12755574084220   -8.26073493682517
C          -5.29286706943360    0.14153134748843   -7.22258924744442
C          -4.76526285483871   -1.00621176339321   -6.56127588789397
C          -3.64799406493204   -0.93281716380751   -5.75942509832237
C          -3.03101158962691   -2.06542070535604   -5.04277845866467
C          -3.56916443444239   -3.36586842167756   -5.10612763256827
C          -4.66869233781677   -3.64849703058196   -5.83849259970681
S          -5.57625875703768   -2.52434159170066   -6.78591147242590
N          -1.94743526923060   -1.71239732778654   -4.37303738417497
C          -1.77300681330886   -0.38283533565664   -4.61208357876045
C          -2.78671399317158    0.13688188106738   -5.43859408719366
S          -2.56385283292550    1.81709165029170   -5.74108923074489
C          -1.13086942720234    1.80839347793345   -4.75980071541677
C          -0.82519695500070    0.59381035582251   -4.23603147861406
H           2.02579238457502    3.52322019165123   -1.40025728494306
H           3.49312948206892   -0.64402600659219    0.96217480890808
H           4.69459399428611    4.32931504907022   -1.09865102939349
H          -1.67694589792092   -1.49406252717339   -0.64909770463874
H          -6.10856604757382   -2.48591559434209   -3.32844657048700
H          -3.63123606158550    3.62288864769906   -2.79988318507949
H          -6.18445017085668    2.27159440280139   -3.84233342548871
H          -7.02783527628201    4.45491627375756   -4.24754687161794
H          -3.25932622945773    5.87802362481532   -4.11808681682642
H          -3.47393311560008    5.84123833183683   -5.86525385677797
H          -3.35060375931370    4.32648906169850   -4.95567588025653
H          -5.33966215740710    7.43649901624493   -5.23270698889840
H          -6.90773286117190    6.67242938493779   -4.89139956189463
H          -6.47363696702439    7.14018580356978   -7.31385892739932
H          -5.95865639690083    4.29839991351553   -6.76629618997806
H          -7.15708889535078    5.63416852741593   -9.26522788286231
H          -9.00453363668572    1.84943619373456  -12.76874667207181
H          -6.51489453229685   -0.79513178023544   -8.69797805327743
H          -4.92364977728140    1.09450460719859   -6.86695673897819
H          -3.07708416263951   -4.14340163756146   -4.54220023667697
H          -5.08234385892642   -4.64212273829635   -5.89449101671862
H          -0.59807767225413    2.72968154427536   -4.63113104507262
H           0.03440003012185    0.40415820540078   -3.62030079374845
