118
 SCF done       -215.437817270617          0.000737336918
C          -3.67004167359999   -1.12141109823321    2.20790275332579
C          -2.59154915763685   -1.68053664578619    1.57569035123407
C          -1.95536283021135   -2.86620571067128    1.99941767463152
N          -1.40366541487702   -3.82908060240810    2.29296761077951
C          -1.94484226781556   -1.13493409766325    0.44579959147833
N          -1.35227125520395   -0.74540517211354   -0.45740866039502
C          -4.28832520080467   -1.60983759475487    3.43166617918321
C          -5.25508591382186   -0.66709326692800    3.85777042564522
C          -6.01363940199002   -0.84545761440474    4.98941073610693
C          -5.81065163535070   -2.01185297226322    5.73401477969770
C          -4.84580188689517   -2.95137311925416    5.29691274927404
C          -4.07667389598063   -2.76961535329234    4.15483735961777
S          -4.76453560196104   -4.32502056193258    6.35785907079695
C          -6.01047906748512   -3.62925235479532    7.35996660913777
C          -6.46381002686715   -2.42916998646601    6.92589278575123
Br         -6.59282674805947   -4.55169742246231    8.88562004643348
C          -5.30361521073783    0.46416475267134    2.90791771640727
O          -6.02780702620101    1.43108919851619    2.99148163394945
C          -4.34788582733319    0.10848227633360    1.82499802269686
C          -4.29575301885552    0.66862266365532    0.58728397759923
C          -4.91578614246951    1.88472689050026    0.13878840021072
C          -5.03604723230867    3.02130136288034    0.95398136519914
C          -5.66392527451629    4.13599600586951    0.45647852241074
C          -6.19374271210423    4.14032332798396   -0.84693480189334
C          -6.04311658214107    3.03456617802431   -1.67584058814546
C          -5.38639570408087    1.92851156269417   -1.18508853321018
C          -6.82572918805964    5.41576311758609   -1.08322690464083
C          -6.67223722151565    6.21411892152133    0.06642583629010
C          -5.91076055830080    5.46305482003478    1.13430182293883
C          -6.75252940158671    5.29320378823739    2.41306221753760
C          -8.05517445526665    4.54122600432485    2.17068347829839
C          -4.58606436115054    6.16907396407629    1.48140160395324
C          -3.69051197438032    6.38457345741806    0.26731707409417
C          -7.18699912338053    7.48536639133313    0.10948482767331
C          -7.88909217222646    7.98751486401490   -1.00119358180060
C          -8.04610193076325    7.16687719532178   -2.13259713202294
C          -7.51628593292909    5.89714152877445   -2.18817353925835
C          -8.46509778779704    9.30081642841886   -1.03344306301106
C          -8.27878795492402   10.30770204326747   -0.14014760301201
C          -8.89908650779349   11.56340259170669   -0.28459415802157
C          -8.69899960449616   12.64659184655819    0.52802919856565
C          -9.30525118192047   13.92206955691901    0.39746737650236
C          -8.90107893867588   14.83422493856671    1.32001713265308
C          -7.94581151483637   14.33631697692581    2.23895585026377
S          -7.59491194713254   12.65598526307669    1.89825580529129
C          -7.32982335981615   15.03428531548974    3.25553958855721
C          -7.50722199434642   16.39398056686329    3.60105113897188
C          -6.73165629490011   16.81848712209185    4.63322271155232
C          -5.88919746436521   15.81328159138722    5.17564798338748
S          -6.13901158024698   14.29534342060115    4.31109477448565
C          -5.00158080273400   15.96170684610780    6.19836466924078
N          -4.23082809382920   14.94617862032804    6.67408923745358
C          -3.30261057196188   15.04072386033768    7.64369195986539
S          -2.95148676777659   16.56853558518047    8.38993648205785
C          -1.76099899822448   15.78654724647299    9.39012812522718
N          -1.05666909192506   16.59699926786670   10.28251244814625
O          -0.19989729754528   16.07754641993455   10.97383574199090
O          -1.35694365198026   17.78138353005195   10.29116236063978
C          -1.65313433146622   14.44427802071868    9.16597998691941
C          -2.52692780316858   13.97896188647942    8.16055679781480
C          -2.63692293165961   12.62795519755874    7.72339510800468
C          -1.96104329064455   11.58024448267297    8.26317209022925
C          -2.10734056998156   10.25593335305195    7.79920484450410
C          -1.59829566154492    9.12893844185417    8.37830845987449
C          -0.99412926178169    8.91608329471826    9.67390608945956
C          -1.28104398964171    9.59269163855990   10.83270105933077
C          -0.70379914813452    9.28450499795048   12.08153066092118
N          -0.25021728707451    9.08107523875520   13.11609958465732
C          -2.27448909552395   10.58828133601020   10.93849065959311
N          -3.10549998390268   11.36626740060982   11.08746653314951
C          -0.20517191366994    7.69089744191237    9.58593202295570
C          -0.50624726450371    7.04536671911824    8.35962079482347
C          -1.45346022364822    7.87987214818356    7.59047064554153
O          -1.96737507430438    7.62768043730161    6.52311123763870
C           0.05711308217498    5.84435967090553    8.00363925856486
C           0.96918181442367    5.26153060150326    8.89063706468117
C           1.27307489953270    5.92236158187619   10.10456066949190
C           0.69512937363860    7.13186014461772   10.47151817037002
S           2.43563852256779    5.03566955495509   11.04246287739416
C           2.49423853912984    3.80283106287147    9.81077946997378
C           1.68672696807283    4.04187933341134    8.75032571966469
Br          3.61813269558262    2.31870565840288   10.04013625647305
H          -6.74293920994781   -0.10915145082836    5.28904047508556
H          -3.35914602240156   -3.51627570947056    3.85811064524172
H          -7.22819042843653   -1.86089538077424    7.42371106948740
H          -3.78507539376045    0.11010906724615   -0.18950925334633
H          -4.61305821307668    3.01986437613520    1.94477736608022
H          -6.42619496276573    3.04394624033414   -2.68505924542968
H          -5.25867178895260    1.05710905435032   -1.81117159254165
H          -6.96956954398311    6.28344635454394    2.81948855641340
H          -6.16125187272196    4.74821315720131    3.15041447878554
H          -8.64683723091062    5.02634436744924    1.39659828154340
H          -8.64188529255811    4.51286105988555    3.08571638208423
H          -7.85076854989093    3.51782029589593    1.86638036922045
H          -4.05487448664812    5.56806051889130    2.22166347332649
H          -4.81457679808923    7.13370296257357    1.93899276161846
H          -3.43129726723349    5.43440166880325   -0.19484587646476
H          -2.77134177179513    6.88242001303461    0.56692779645468
H          -4.18963932261880    7.00253130042735   -0.47624803319318
H          -7.07110365153852    8.09319503100216    0.99348533549439
H          -8.59091681748795    7.55488613097925   -2.98149874857816
H          -7.64165956309586    5.28664734392085   -3.06981175949924
H          -9.10175004561248    9.50511465661093   -1.88660951303438
H          -7.62390489370672   10.18097688865472    0.71114161481137
H          -9.58558116820969   11.69468628516554   -1.11164674882285
H         -10.02029638296779   14.12009207462128   -0.38147972925075
H          -9.25651529676590   15.84768496666468    1.36491960719174
H          -8.20078903449840   17.02212596104282    3.07235663029807
H          -6.72963219567543   17.81856206723095    5.02706095656968
H          -4.87935388904624   16.92241350714962    6.67489795833817
H          -4.37714406980098   14.03565702049393    6.25065100484049
H          -0.96476687898697   13.83315654134986    9.71892078764667
H          -3.33833057991901   12.41481510638088    6.92610566613336
H          -1.26875669558148   11.75637718125182    9.07139718418036
H          -2.60458704803670   10.10665376902430    6.84667172828661
H          -0.19428400485744    5.36868963819821    7.06867051080783
H           0.96068223084547    7.60260359111269   11.40363004762344
H           1.60081451083128    3.38732098888789    7.90229450815535
