109
 SCF done       -206.508250535180          0.004001693720
C          -0.34533896509077   -0.48270683096119   -0.21629016462299
C           0.70223427905921    0.26943274123668    0.24468585079700
C           2.03444515413340   -0.18857952360646    0.31783857676838
N           3.13407195848260   -0.50116533556888    0.40847340104413
C           0.62240741841513    1.61171031572452    0.66965843057925
N           0.66699325121726    2.71122525486280    1.00021758830960
C          -0.24165809848762   -1.82323129707898   -0.77285305391938
C          -1.50883632330707   -2.20359671742679   -1.27610474884435
C          -1.73431587330457   -3.42101742553102   -1.87180225867225
C          -0.65531387303070   -4.30430580921839   -1.97976848175179
C           0.60956276905970   -3.91403452439312   -1.47608268487673
C           0.83652194879008   -2.68511453560381   -0.87126588005563
S           1.80341554564075   -5.15451743195269   -1.71420562754357
C           0.60401785246634   -6.16668143875491   -2.47537697504077
C          -0.62708577920637   -5.60690507281709   -2.54897730172209
Br          1.09125782364285   -7.86657984399374   -3.09922955042956
C          -2.48399263071428   -1.11432128145321   -1.05425521131755
O          -3.65148329136552   -1.13756280564801   -1.36799106352521
C          -1.73580081379813   -0.05744702542904   -0.31972759552824
C          -2.25246829906657    1.01255343837196    0.33721808535528
C          -3.56350211877486    1.60120540972229    0.27109428751561
C          -4.00457276832166    2.31912913685967    1.40753592223293
O          -3.17236291035676    2.37056335533404    2.49606178991229
C          -2.77618475718681    3.66396567746562    2.94664820657504
C          -2.02225752584740    4.45371778391064    1.88427152810751
C          -5.27741823109320    2.90866027311144    1.40652531106531
C          -6.04003339569698    2.88015773192749    0.23364772360468
C          -5.57894280798068    2.24709321870575   -0.91479422475461
C          -4.35613946055266    1.57781108337184   -0.87411920905759
O          -6.23521675457846    2.21316039830515   -2.09261093238214
C          -7.45319758599004    2.92935575550716   -2.23538571900457
C          -7.88517139481485    2.82591035862107   -3.68760779851601
C          -5.82528940185163    3.50067011460559    2.61054886392540
C          -6.70590624552775    4.52781437620574    2.61871793916296
C          -7.28823496211564    5.08423873161748    3.77880378827614
C          -8.17039136672636    6.12854392328610    3.74001235443501
C          -8.83291068579133    6.75727838465745    4.82699249818620
C          -9.67125383745985    7.76510853771904    4.46693551121903
C          -9.72465347939849    7.99522338814548    3.07042613779737
S          -8.66293849773969    6.89124933037625    2.23122827593143
C         -10.47494098086669    8.91949683222129    2.37678716066152
C         -11.41310358322245    9.86075633604578    2.86162120534637
C         -11.99608606340612   10.60868479267724    1.88938950542390
C         -11.56286479597125   10.29997692860488    0.56704210921272
S         -10.36288319167024    9.02038371282118    0.63181600464588
C         -11.94370202281530   10.97563558441248   -0.55614640975728
N         -11.58713399064957   10.73955566876493   -1.85491017926313
C         -11.26192641590554    9.56659522811478   -2.42794426905791
S         -11.79729423576051    8.06645742798146   -1.72646952586558
C         -10.89752193768789    7.18026577472492   -2.92213035811135
N         -10.90689067374410    5.79392931749778   -2.82857153499092
O         -10.28055424064113    5.15526285121912   -3.66149329436358
O         -11.54208388164765    5.30624357118242   -1.90511674555893
C         -10.24416051068462    7.98898127304596   -3.81122690775648
C         -10.47388730172115    9.36072785924790   -3.58967782009135
C          -9.89657171719716   10.33814900166049   -4.45251708674080
C         -10.37145234478056   11.57860653680347   -4.75528460881563
C          -9.64150938592490   12.43974842255072   -5.59557227427265
C          -9.91620113087423   13.69671544476222   -6.06800852909215
C         -10.93922387904359   14.68169848813999   -5.82359144269605
C         -11.72854161563972   14.83736619660112   -4.70390590699802
C         -12.66801108815489   15.87443992409106   -4.52927523824994
N         -13.45478935804768   16.68688077191954   -4.33023557722623
C         -11.66481373007551   14.03756176741511   -3.55990101588270
N         -11.65944237613446   13.41696702530487   -2.58908764729542
C         -10.88988695026501   15.64697397678733   -6.92079944817741
C          -9.74326891971692   15.38645955287955   -7.71134504030519
C          -9.05618001691276   14.19686344717196   -7.17541238770222
O          -8.02285301347455   13.70013969967199   -7.56470721892168
C          -9.40571299626068   16.14617038804848   -8.80348688036178
C         -10.24915890000672   17.21014641102245   -9.14352586718955
C         -11.40276153338917   17.45179137394730   -8.36066745470533
C         -11.73839217711297   16.68757056094277   -7.24933301298336
S         -12.31457799089448   18.80160821371081   -8.96604929212634
C         -11.14667316396881   19.02286662410375  -10.24211247068426
C         -10.12678615251318   18.13176193472127  -10.21867275931729
Br        -11.38552702516017   20.40714982510372  -11.48464682210161
H          -2.71248599520938   -3.68183082237038   -2.24445644404362
H           1.81604426502753   -2.43636481991445   -0.49811786320162
H          -1.48174232452237   -6.09116331622468   -2.98548094857614
H          -1.61108901362752    1.49450000719290    1.06686301406304
H          -2.13206433454580    3.45845619998995    3.80440239081196
H          -3.64695794886185    4.24058830966738    3.28178375609180
H          -1.11718243282536    3.93351782783995    1.57888056976830
H          -1.74497858990135    5.42331527161055    2.28801647119545
H          -2.65391238394353    4.60528739550771    1.01017764883554
H          -7.02186927136067    3.32417426434233    0.25460202478939
H          -4.03194420995329    1.06258036835036   -1.76099044003271
H          -7.29986776198415    3.98206768458743   -1.96145604124285
H          -8.22183160161775    2.50261387964640   -1.57869865875971
H          -7.09601873752989    3.19994809250476   -4.33352979963987
H          -8.78350608975789    3.41618057988360   -3.84385329542417
H          -8.08272010837848    1.78946754397641   -3.94508612467147
H          -5.51113759817951    3.05792565004525    3.54752927523659
H          -6.98666402793873    4.99110224154280    1.68110798766660
H          -7.03602023455746    4.66316771165032    4.74273972441279
H          -8.66800527172424    6.43509174775757    5.84004402145618
H         -10.25471023078244    8.34691890249897    5.15763561102948
H         -11.63328042416402    9.95121527801296    3.90995127900792
H         -12.73367634183126   11.37097403487665    2.06527797560684
H         -12.53329802990666   11.87353446319676   -0.43000130117522
H         -11.52592233424455   11.60716069645862   -2.40074078121226
H          -9.64340617208370    7.60057957592467   -4.61431220627236
H          -8.99204852805903   10.01396120892258   -4.95360137143883
H         -11.34309525065594   11.88264101771785   -4.40524704894054
H          -8.71514481695576   12.03328186263054   -5.99255858509172
H          -8.52073232297507   15.92635203937187   -9.37978485701974
H         -12.63304553261309   16.91013518002333   -6.69229295826847
H          -9.32112300583274   18.12279940204916  -10.92996753087394
