93
 SCF done       -183.697523174236          0.000935877858
C          -9.55439128133321    4.46587795683481    1.55024681829147
C         -10.50406582865118    4.70967568092974    0.59813823164878
C         -11.78136705215215    5.24302281829034    0.87806160331346
N         -12.83134117880326    5.67654690725839    1.04146504791591
C         -10.37412748810252    4.46248294665678   -0.78660151639428
N         -10.35959057277569    4.31445922864840   -1.92492336642059
C          -9.71199518628596    4.68547385549982    2.98185955712974
C          -8.55565982035657    4.21118124388140    3.64997618334910
C          -8.41118833052589    4.26700575016279    5.01618980626831
C          -9.45610041439892    4.82185936785372    5.76076891616690
C         -10.60505112027747    5.30129220458144    5.08499163806000
C         -10.75196341060785    5.24140511386281    3.70497833246592
S         -11.77044978740385    5.95698371653271    6.19298813430275
C         -10.71576456019706    5.58319890526055    7.53074859121505
C          -9.54997028455086    4.99626250866055    7.16849675119460
Br        -11.25341791153253    6.00152180051824    9.27702562644179
C          -7.60165671631106    3.67880698653865    2.66429890833310
O          -6.50182650404984    3.22048541702122    2.89842201026290
C          -8.24515196670867    3.85973970286445    1.34043567251114
C          -7.69102718993221    3.58697860895015    0.13190424371173
C          -6.47283246573809    2.92031144705094   -0.17994713422713
C          -5.77510151639039    1.87229821375015    0.39870452756013
C          -4.53355344063707    1.60748169526535   -0.28268970566246
C          -3.55380285405817    0.65404875666027   -0.00522413458218
C          -2.42550642976322    0.58118873980673   -0.80872521743213
C          -2.24981431581690    1.44245692789827   -1.90509753107699
C          -3.21290112817854    2.37711705609657   -2.20250474235121
C          -4.34424562762314    2.45061638935222   -1.39757649863865
S          -5.67189076762171    3.53651944154644   -1.61274167768353
C          -1.43330350933322   -0.38361870824459   -0.51381832734933
N          -0.63414556872501   -1.16773403275342   -0.26916692327662
C          -6.24039330631798    1.05586224257545    1.48527521615870
O          -5.31554257116505    0.39497049729979    2.22560945435235
C          -7.49320283419925    0.70556750962190    1.95429588066986
C          -8.93724671519432    0.89185829606173    1.79527177410883
O          -9.58077659692953    1.55773945307593    1.02110552878767
N          -9.49425853298250    0.10997760200709    2.80194673291264
C          -8.57770814048722   -0.57068020219974    3.59829647256024
O          -8.86531244690178   -1.28780184948299    4.52582680972937
C          -7.28641499295830   -0.18763801667319    3.04092428460951
C          -5.92197502034075   -0.35164962598465    3.17903343515324
C          -5.13710277003312   -1.12833159854719    4.07532216082055
C          -5.69939581567185   -1.89379017019234    5.03675675587613
C          -4.94408825201172   -2.69718793948673    5.94469159836915
C          -5.45466763808362   -3.46085887164002    6.92732883347134
C          -6.90985079700348   -3.59468498009540    7.23842221126628
C          -4.52728031506867   -4.24003245810401    7.82913043493318
N          -4.99336543383831   -5.58200434728839    8.07090343063652
C          -4.22180201758904   -6.66814794163945    8.04889134422392
C          -4.66231790251109   -7.91430155001474    8.40172214030257
C          -3.91206040891771   -9.09642774184326    8.38073429790422
C          -2.56127662416277   -9.34319980140977    8.28436878279878
C          -1.36856874057583   -8.56450208564515    8.47480119254177
C          -1.21209891084087   -7.42680904611045    9.23732152751916
C           0.01395847817447   -6.76313085990806    9.43217625739686
N           0.97263878086892   -6.15630854955777    9.61382913435536
C          -2.24340709070391   -6.81129029860700    9.96197424937918
N          -3.05931273434511   -6.25884072960246   10.55529916637281
C          -0.24857328751632   -9.32807198025011    7.91979789108026
C          -0.70581178200939  -10.62564341209854    7.58685025840180
C          -2.15506584113728  -10.70562411039195    7.86460637336471
O          -2.87363289979062  -11.67498006098863    7.74414843353508
C           0.12195278168911  -11.59473053112425    7.07783759496539
C           1.46643295150441  -11.26282914526491    6.87465849295491
C           1.91010957850046   -9.95892074235591    7.19335014178205
C           1.07260551827271   -8.98080497750429    7.71796921890512
S           3.60275579251169   -9.75845052304976    6.85208131131860
C           3.69006681185840  -11.40959274974675    6.29885373541775
C           2.51425198166329  -12.07723276672595    6.36307654692857
Br          5.32615745660488  -12.09544358052215    5.68774058829041
H          -7.51818673580404    3.89501002775986    5.49382836121293
H         -11.64521569549278    5.62192472949804    3.23895357866030
H          -8.78609129800862    4.69989204130173    7.86387018091544
H          -8.19767303491476    3.97651503130234   -0.74315345060181
H          -3.65717037628826   -0.02019154451191    0.82842093966135
H          -1.35889980568455    1.35827712670559   -2.50817162926434
H          -3.10390928255575    3.04292887895680   -3.04364264765486
H         -10.49314093078612    0.03183074298798    2.93125255332682
H          -4.06520665651239   -1.07541044233173    3.94713604625555
H          -6.77586291806407   -1.90613090170309    5.11320938673432
H          -3.86919713143225   -2.67170061587541    5.81373769783276
H          -7.49863279966832   -2.80207898797118    6.78940252340672
H          -7.06838041632915   -3.57464176180568    8.31595873121806
H          -7.28706716258238   -4.54418072641485    6.85598374118148
H          -4.44717840031611   -3.71014431064007    8.79134775961013
H          -3.52619060209474   -4.29095075476329    7.39668333003060
H          -5.89799776346609   -5.66868584637158    8.51250144440095
H          -3.23145027921997   -6.53037189164323    7.63688314127890
H          -5.70363540949532   -8.01447478529987    8.67892935582386
H          -4.49818526211655  -10.01195552636668    8.38397485878932
H          -0.25334888393877  -12.57850518288885    6.84364391123719
H           1.45890450981712   -8.00010198909132    7.94068503253200
H           2.38809085117163  -13.10144231474324    6.06289163330203
