99
 SCF done       -196.488631560430          0.000590864466
C         -10.40423000446606  -11.63604215836930   -5.56913183625855
C         -10.09315813191302  -11.48364190009414   -4.23755084623573
C          -9.62076648009397  -12.53111746647987   -3.41963917898726
N          -9.21458106126075  -13.34425013468988   -2.71798452654332
C         -10.15324397318714  -10.28749687326861   -3.49406653809558
N         -10.14575696588789   -9.36481839311235   -2.80800889445127
C         -10.29880530532415  -12.88201752199630   -6.32687317245266
C         -10.66324454746474  -12.62979944735101   -7.67305753703129
C         -10.65689429958099  -13.60593356907128   -8.63842558122143
C         -10.27419096969785  -14.89737083069279   -8.25955127311022
C          -9.91807859785263  -15.14151427244684   -6.91303571192583
C          -9.92389712056504  -14.15317772740385   -5.93567801822984
S          -9.48074780963773  -16.80450767312618   -6.65912410706066
C          -9.77670916582289  -17.14244109114127   -8.34376302333596
C         -10.18300787129408  -16.06857245053138   -9.06101899518958
Br         -9.52011437811230  -18.88204765848711   -8.99761447309841
C         -11.02885042868103  -11.20528429142677   -7.82180447569180
O         -11.38344114420146  -10.64938547901355   -8.84246740528184
C         -10.86806503855987  -10.61663999011574   -6.47865710063443
C         -11.13690097893604   -9.30846603488492   -6.15178995196743
C         -11.61386746453003   -8.31042847935105   -7.00085216100630
C         -11.86070742842064   -7.04269167740679   -6.51096406050973
C         -12.41729238424168   -5.91964141120726   -7.16926707945059
C         -12.58883111849030   -4.82796744720467   -6.36673355616046
C         -12.16621183029067   -5.03761956048681   -5.03713817479646
S         -11.52225346230379   -6.64898856558529   -4.84419382528144
C         -12.24428012233079   -4.24288183644159   -3.90920287288160
C         -12.86292531329251   -2.99573165066418   -3.66938495138313
C         -12.88684368017625   -2.64372656936556   -2.35469901483039
C         -12.29991685694601   -3.60459896193299   -1.47928677262666
S         -11.60479391806883   -4.90211417180024   -2.42454010552694
C         -12.26391073148276   -3.52224182079600   -0.11622524557373
N         -11.82065815553156   -4.44111742795658    0.78994600662240
C         -11.65211127772202   -5.79034139268366    0.69815093948527
S         -12.53962564894868   -6.75570058943021   -0.43432173493351
C         -11.67832350499652   -8.16684134212671    0.08216619090227
N         -11.98987383520707   -9.36837156763094   -0.56838774116986
O         -11.42283013559921  -10.37853827524260   -0.20544049355982
O         -12.83574411558538   -9.30304290505010   -1.44372228743297
C         -10.78744048307777   -7.91764020340004    1.08552328207809
C         -10.78603504020104   -6.56774130115917    1.50244117184179
C          -9.97568222398999   -6.13556190942527    2.59910977937311
C         -10.21734987728408   -5.05816626456389    3.39331053575634
C          -9.42564559785864   -4.59126869846251    4.45662761809154
C          -9.74736016364260   -3.42277335242739    5.10575612537535
C          -9.13293713028146   -2.79875626607456    6.21586998662749
C          -9.72002939152267   -1.62735773011148    6.60201504290049
C         -10.82367400327333   -1.25278461400422    5.80687955775962
S         -11.10109350910080   -2.43545961559514    4.56024516522073
C         -11.67128084742197   -0.16096555249600    5.88620065306848
C         -11.77213995840163    0.87866168352597    6.82910080129895
C         -12.82340281448481    1.72051086041582    6.59838621157608
C         -13.61494582685581    1.38339154214769    5.47404192474203
S         -12.93725035854511   -0.01038892424682    4.68727252036412
C         -14.70652973769138    2.09417034861014    4.99705600989612
C         -15.51814701035741    1.82191859183095    3.90127443138780
C         -15.71932220749296    0.67272277319923    3.14771457698930
C         -15.54608511347408   -0.71907415174368    3.41148448423942
C         -15.45849127119100   -1.32376701758043    4.65164476367373
C         -15.19206992494872   -2.68948389479412    4.84488193925469
N         -14.91273064403751   -3.78617697787620    5.04720675664792
C         -15.67123128757623   -0.63366277084950    5.85776163052138
N         -15.85340144166053   -0.10204593784212    6.85953781886997
C         -15.63164403535411   -1.43502557362229    2.13908527622949
C         -16.02037933193277   -0.51860503450657    1.13271766366171
C         -16.16679150798507    0.82501776234626    1.74365367923259
O         -16.53216258277144    1.84186665330029    1.19428998095594
C         -16.19708839312221   -0.89232211918003   -0.17590430622737
C         -15.96543736650602   -2.23346865297529   -0.51053764903277
C         -15.58243282457739   -3.13946331435486    0.50288790733086
C         -15.41452253145019   -2.76271847315278    1.83134648862551
S         -15.34098984135277   -4.74268465656291   -0.12806109680480
C         -15.72137424711861   -4.17347402589010   -1.73085960718473
C         -16.03872986088096   -2.85846398548376   -1.78683947225322
Br        -15.61920489844725   -5.36047063037827   -3.18231951003160
H         -10.93821116004291  -13.38117676083233   -9.65536957962955
H          -9.64546198181440  -14.39230505978338   -4.92322250803460
H         -10.40930751077331  -16.09839785932951  -10.11124406677995
H         -10.98259316267771   -9.01791312082663   -5.11956053576822
H         -11.81226132221240   -8.53371583389228   -8.03844411718012
H         -12.69251769806457   -5.96043972981782   -8.20827937435333
H         -13.01293492446436   -3.89425015280960   -6.69064928700827
H         -13.30041282486112   -2.41770449469233   -4.46308786089400
H         -13.33363085626608   -1.74356607703345   -1.97097987320770
H         -12.59504422592369   -2.59637299857193    0.33724941769027
H         -11.53519348798331   -4.04142936029248    1.67542247283537
H         -10.17400900871957   -8.68518424199854    1.52147149247476
H          -9.12658601568037   -6.76687361574713    2.82506987835731
H         -11.13455488769681   -4.49718865532417    3.26153851814394
H          -8.54868201138813   -5.14162279839569    4.76485256867147
H          -8.28145479175556   -3.23850021396432    6.70472053181747
H          -9.38989900428461   -1.02589249422628    7.42997083769501
H         -11.09065292784879    0.96908091718159    7.65579974982600
H         -13.07367126904937    2.56062498514202    7.22107198668862
H         -14.88592578047194    3.03585844350183    5.50075169603322
H         -16.04608685488999    2.68175280718123    3.49693009911148
H         -16.50220919967148   -0.17543617231866   -0.92216239035338
H         -15.12065316790315   -3.48999203911411    2.56948145301425
H         -16.30787738333828   -2.34676342586722   -2.69259366574133
