94
 SCF done       -196.874253006409          0.000825068843
C          -1.03339650153184    0.92033969104591    0.61122818486840
C          -0.50472367350358    0.79727538158303   -0.64712794335816
C           0.71802585915455    0.15135137267867   -0.92393456046788
N           1.70863749433689   -0.35683358060713   -1.20346700748867
C          -1.14571466187240    1.21047029342099   -1.83550265681064
N          -1.62876588549778    1.47033002766408   -2.84385753629127
C          -0.47900877661579    0.33604941475140    1.82535712527297
C          -1.43851573857257    0.45751057336712    2.85906334967354
C          -1.21958154843614   -0.01545401164842    4.13004260692831
C           0.00984126903386   -0.62717867908833    4.39610376806077
C           0.96634247978435   -0.73482401098775    3.35849860902700
C           0.74143352635942   -0.26456615418476    2.07054383572250
S           2.41964990673547   -1.51301410730023    3.90723621470659
C           1.73152088517100   -1.68256765917903    5.50044121876987
C           0.47850436145857   -1.18299929220329    5.61804781034113
Br          2.73310966901321   -2.50048716169644    6.85885526135128
C          -2.63719742653534    1.15682267834818    2.34867712399864
O          -3.65413811766904    1.36031986798386    2.97816157383061
C          -2.29645161929210    1.54852758675270    0.95725013143162
C          -2.93147217683227    2.46797874799993    0.16602978909538
C          -4.15547121104181    3.12256736170535    0.38767126856350
O          -4.99807952286227    2.76087224252963    1.40390268581730
C          -6.04794666703456    3.56828377386388    1.31954578336265
C          -7.26935663502557    3.83061299045000    1.94644297191052
C          -7.84136935441197    3.16843621964769    3.13502965246031
O          -8.94461370136422    3.42779162243579    3.57706479159738
N          -7.01702000304936    2.25209932086988    3.68396331688640
C          -7.82092855165677    4.89271338548500    1.19986958484709
O          -6.98473122033518    5.27577196233711    0.17534159444224
C          -5.90624142750187    4.46559447823065    0.24377025736804
C          -4.68931879151674    4.18095827581944   -0.36497155887237
C          -9.05070776336957    5.53166495906512    1.39747599827467
C          -9.50865028050052    6.58231028721474    0.63848886646558
C         -10.73833390787725    7.27713979647420    0.76178146368256
C         -10.90030545081292    8.29687826063090   -0.13121892313931
C          -9.80393210043562    8.46406561922038   -1.00239427825106
S          -8.56904884903807    7.26765680618887   -0.66371500796746
C          -9.55191750551812    9.38289710151566   -2.00730626715297
C         -10.29131339254431   10.45629607001300   -2.54688131443302
C          -9.63423265000686   11.13124630570848   -3.53809728686863
C          -8.33846451253822   10.63602660573127   -3.83410706203270
S          -8.00627338299710    9.26421338718569   -2.80200667605314
C          -7.41322792729498   11.08721574455974   -4.75145172087226
C          -6.15119609015545   10.47602007807400   -4.87911376835328
O          -5.91306779914393    9.41995331660121   -4.03420454863075
C          -4.67680344882212    8.99388106516161   -4.28956707237053
C          -3.76117008284614    8.02721742852677   -3.87660553972225
C          -3.97641694948232    7.00059774103943   -2.83099481966163
O          -3.18719077920666    6.11444697804960   -2.56881874766018
N          -5.16024912837492    7.14310525508430   -2.19940717015916
C          -2.62811244003927    8.27633626686213   -4.67253145898355
O          -2.84788433436514    9.31850843359267   -5.54516380904495
C          -4.09315669049072    9.76044216609540   -5.30796077363965
C          -5.03652269728648   10.71606242684446   -5.69495803804144
C          -1.41258181891438    7.56444586460567   -4.65926145100367
C          -0.23970302614112    7.88463994032768   -5.27463447171647
C           0.21785503589349    9.10718092692974   -5.89739131818604
C          -0.10901710425408   10.38226657554713   -5.51461589058355
C           0.42394335839105   11.54136508035799   -6.11165687470805
N           0.81400340275395   12.51287679334030   -6.58311796518963
C          -0.93320849215911   10.67666004751902   -4.40873742932035
N          -1.54665713456562   10.96733075923080   -3.48286721051128
C           1.29837983992362    8.74917865342697   -6.81043316776006
C           1.66572699468195    7.40083350689020   -6.56933451973349
C           0.78060566762350    6.82940691036214   -5.53126805847386
O           0.84091454136740    5.73401861251285   -5.02810827112113
C           2.69060898848045    6.78521992151297   -7.24552169130814
C           3.37582046134100    7.53041506067736   -8.21134588669666
C           2.99121986354698    8.87096101570708   -8.45366628349547
C           1.96068425070406    9.49797714716646   -7.76360986125013
S           3.96408688373767    9.60060364583402   -9.69427580322458
C           4.86591464422459    8.11760475719501   -9.86491249768559
C           4.45947561951359    7.12532361436815   -9.03839167111595
Br          6.25609843143241    8.02102409534974  -11.11960911214382
H          -1.97118269583510    0.08597576875661    4.89722894327825
H           1.50170033147273   -0.36503695773307    1.31410843537619
H          -0.09252220281300   -1.20340714165231    6.52826138552650
H          -2.44116529428513    2.78472516453026   -0.74517030301979
H          -6.09444833211579    2.05558972867916    3.32888798540005
H          -7.32970710873990    1.76223545217148    4.50537454807457
H          -4.19709606904519    4.63861759836042   -1.20269007532369
H          -9.64795479338757    5.14403814039598    2.21030787425679
H         -11.45966795958391    6.99891301783618    1.50923617336700
H         -11.76786312819402    8.93082690065948   -0.17969536442951
H         -11.27809471730920   10.70639746406475   -2.19934894655548
H         -10.04083801733406   11.97742890108617   -4.06361195750584
H          -7.64461168011419   11.92988141384646   -5.38201080038936
H          -5.80787141557815    7.87692241731058   -2.42447574184142
H          -5.42296759538634    6.49803738838417   -1.47344864978277
H          -4.95217019596112   11.48145665254766   -6.43715026480963
H          -1.45592615913705    6.61108463208407   -4.14266140721482
H           2.95587379037547    5.76076346280191   -7.03675608752831
H           1.69771065664548   10.51964530472755   -7.98334765187488
H           4.90336810263128    6.14697704980308   -9.01089795090836
