86
 SCF done       -155.646869680681          0.000545385978
C          -5.32291102973343    2.78130988429584    5.30803814251762
C          -6.48450614690443    3.47739226301932    5.52441087552757
C          -7.20068953279692    3.45954699602736    6.73864336257756
N          -7.81367906841768    3.49804774747399    7.70889506171520
C          -7.13540380572977    4.27367777650525    4.55956270161350
N          -7.73542637995617    4.90841964098944    3.81382904396205
C          -4.70410063941522    1.85468677684856    6.24776707190719
C          -3.60771140059809    1.22586876436513    5.61010394840918
C          -2.81774471041750    0.29750551846150    6.24388176389098
C          -3.11739088785781   -0.01707655149927    7.57383919026949
C          -4.22325608266002    0.60631118460453    8.19803710905406
C          -5.02862062503623    1.53629853907479    7.55301318079614
S          -4.39736816077396    0.09216487611103    9.84793031768725
C          -2.98553627067628   -0.91279671347290    9.68876439038315
C          -2.42682800558519   -0.89257200728790    8.45587225353106
Br         -2.33582347866440   -1.83484820764855   11.18286974230000
C          -3.49501859032992    1.72509500587130    4.22671598449967
O          -2.65072469447468    1.41804481324468    3.40942729869001
C          -4.56161829333518    2.74047016795687    4.07546280377738
C          -4.70971764563885    3.57699046077826    3.00246112103491
C          -4.13686978897294    3.43852372352400    1.70993034289077
S          -3.68194930954039    4.86815019465923    0.82040305999776
C          -3.06492642376572    3.91434211785968   -0.46262832339468
C          -3.21944981838461    2.57351249613614   -0.26534659496399
C          -2.79851325879377    1.51545571806334   -1.22721579968043
C          -3.86031699563794    2.29145921968128    0.96745529692864
C          -4.24121931016958    0.99284999198065    1.46649269531495
C          -5.43376275935766    0.80851684034724    2.07161251160633
C          -5.73512792659081   -0.17268425693095    3.06257642175681
C          -4.84213307523704   -1.01186463124370    3.62855065142417
C          -5.09315248257785   -1.62497979851723    4.90761599504633
N          -4.22160533437737   -2.51700642290639    5.35336354829558
C          -4.40642118940162   -2.94270184392878    6.60830116004872
N          -5.37737108919721   -2.45476785874469    7.41197832865902
C          -6.21787249695840   -1.61374634945704    6.85405446063322
N          -6.15031380333956   -1.17450130935614    5.61751500079673
C          -3.56348704041334   -3.93204174290118    7.16511877073607
C          -3.73907830321124   -4.32188850307880    8.47166202682656
C          -3.01138934134148   -5.28394726322743    9.20612581374868
C          -3.39712045991607   -5.39034338490372   10.51640080763547
C          -4.43053856481858   -4.50655659252454   10.85698855439259
S          -4.95909888763302   -3.57406665405897    9.47029528069928
C          -4.97433508910389   -4.24594363633917   12.11856788261449
C          -4.73631130741801   -4.86692899118181   13.34540275762941
C          -5.42087654500670   -4.28338835551301   14.39104620820554
C          -6.18998946201331   -3.17468402826760   14.02776167898100
S          -6.06797360362270   -2.90514840004946   12.31395069779166
C          -7.01458906082136   -2.45423327154681   14.91197714046801
C          -7.75837335354642   -1.31963073951343   14.76890423254641
C          -7.88935578688351   -0.27625063327217   13.80205212298079
C          -7.08628253540236    0.08439557828793   12.72188623895333
C          -7.41796829493775    1.18595939566169   11.96401934687578
C          -8.53427005347395    1.97158859695569   12.27887531118183
C          -9.31881305917070    1.67510771632144   13.36549206720729
C          -9.01949356966453    0.54825298178623   14.14957535219998
C          -9.60966433232010    0.08207981334010   15.34132725897936
C          -8.77587523239831   -1.02226811754789   15.83804995941740
O          -8.88323963072803   -1.61126139906455   16.89537888230931
C         -10.76751228488590    0.47039738765993   16.06354534831554
C         -11.79510762062648    1.21979362975008   15.63227161195965
H          -1.99268301999969   -0.17277755053827    5.73240395348442
H          -5.85775096312305    1.98785148260608    8.07117820538730
H          -1.55559456973879   -1.45849300183381    8.18025810001942
H          -5.28851931480468    4.48331809996790    3.14361905446750
H          -2.61374796579238    4.40069538228833   -1.30575556540290
H          -2.34828726316787    1.95717790773332   -2.11187561776037
H          -3.65687116921991    0.91624242523748   -1.52771288687556
H          -2.07445618634698    0.85225197278401   -0.75585050064312
H          -3.50191009256198    0.20687167817111    1.41577675642839
H          -6.18619866903108    1.57940888554266    1.94860936925587
H          -6.71141553339574   -0.10706925229096    3.52532099258315
H          -3.86324663379668   -1.19114758783479    3.21176002800269
H          -7.02849712549139   -1.24170028069951    7.47077197119783
H          -2.79621219915654   -4.36699648378541    6.54675731860341
H          -2.22190269534602   -5.85721393298472    8.75333077269257
H          -2.94077353117099   -6.05610482001510   11.22717872699467
H          -4.08752885939079   -5.71763710552031   13.44695763807946
H          -5.36704084627699   -4.62629172847147   15.40934262007297
H          -7.12822533758461   -2.92587569709292   15.88589337640372
H          -6.19522448588628   -0.47324279175016   12.48818415011581
H          -6.79949851940962    1.46030548679117   11.12261429833579
H          -8.76005392373198    2.83218908641336   11.66720746830095
H         -10.13703685328953    2.32218246691025   13.63633662700508
H         -10.81000055745137    0.04801642250746   17.06193897102566
H         -11.85447803943671    1.60086218495384   14.62851698344632
H         -12.62821171440438    1.43738859746889   16.27771771626688
