104
 SCF done       -208.156871166717          0.000987628192
C           2.00831665097124   12.54191317415914   -3.02099678207201
C           2.51654389820475   13.49317815599142   -2.17606044344751
C           3.80038375253315   14.06243651479789   -2.30240073945468
N           4.83498859912168   14.55622680227512   -2.35644924653653
C           1.82364436870524   14.01040247995474   -1.06214319685948
N           1.29638782508911   14.45109970642035   -0.14293945403127
C           2.69592938975657   11.96508240153806   -4.17327445692445
C           1.85926934585305   10.98296132464478   -4.76502733048475
C           2.23222422116289   10.26837437167814   -5.87802573283958
C           3.48599410203555   10.53506276893702   -6.43730590846081
C           4.31325999610143   11.51578756734682   -5.83970677624102
C           3.93807925603516   12.23711178793983   -4.71196606586892
S           5.81606743428861   11.68943440726661   -6.69101689686175
C           5.32166407073353   10.46043919045725   -7.82427034164464
C           4.09334758155903    9.94438293352869   -7.57842511211766
Br          6.46992634958039    9.97434901249088   -9.22454882549571
C           0.60665700216955   10.90824335124633   -4.00597283816809
O          -0.34116644121753   10.15043567701897   -4.20746774581680
C           0.71037892777296   11.91052144865272   -2.94310519358844
C          -0.32990760293505   12.16361555010551   -2.08169683047394
N          -1.47557626836241   11.48996487684346   -2.21256122135011
C          -2.61719746212974   11.62740147426703   -1.49423921875456
S          -2.73487615342104   12.67672019118478   -0.12085509831978
C          -4.40524745803198   12.23919921546295    0.03699934765381
N          -5.13274831685472   12.80438194322748    1.09642367408749
O          -6.30298721870002   12.49478381607586    1.20266040029125
O          -4.52857170750403   13.56635206287499    1.82811240401442
C          -4.83960597596646   11.35404544252515   -0.91284246734231
C          -3.81890909840196   10.97844480228190   -1.80533242264771
C          -3.94063862339579   10.08044644597124   -2.92393282378369
C          -5.10058853464815    9.77987486380964   -3.53569331490308
C          -5.25033728657336    8.95283448064676   -4.69208336012627
S          -6.83651531143107    8.30188060266765   -4.99133341068363
C          -6.28641389716441    7.45532436838719   -6.40543864710920
C          -4.93736016355503    7.67985414279644   -6.62090577613003
C          -4.35924599713659    8.54991300128982   -5.67303926336735
C          -2.94106948737668    9.04552474989502   -5.81672309187992
C          -2.86915798735264   10.47447507871744   -5.60031889378887
N          -2.79844242913197   11.60801670404779   -5.47002953050090
C          -2.39306678803339    8.74441444262906   -7.22102444804028
C          -2.65975184738974    7.28798398187684   -7.56734692419151
C          -4.16430092103756    7.07397985285621   -7.77039679950537
O          -4.50381560576807    5.72113666025705   -8.02415309515132
C          -4.23413840293825    4.80502623363837   -6.98650923202418
C          -7.17747676768322    6.66785882260901   -7.19088917876593
C          -8.50524086238189    6.61687512096864   -6.97660707915039
N          -9.35558664918393    5.83914185197643   -7.71528328939249
C         -10.70175518977852    5.84665080749180   -7.62129899207573
S         -11.51258393315331    7.01279873753122   -6.62872043501123
C         -13.04197689549599    6.34487333290263   -7.11878535671773
N         -14.19385560834701    6.92330118921914   -6.57467719341685
O         -15.27002322299390    6.45700619599144   -6.89512556259564
O         -14.02056560955420    7.85754857995087   -5.80975968148965
C         -12.92802913457597    5.29795210875880   -7.98639708125669
C         -11.58704906340478    4.97664493492252   -8.28891491712779
C         -11.16567091998427    3.89183757331869   -9.11551106581470
C         -11.99589555508977    3.06009146296766   -9.79165393149648
C         -11.52383618964252    1.95902369316459  -10.54366104359454
C         -12.25659645588506    1.14780573169242  -11.35628841468982
C         -13.60281092556131    1.27409814416722  -11.87180116895401
C         -14.25076665827046    2.44416983153293  -12.17252071745803
C         -15.53753441787951    2.49960576260423  -12.74717593851635
N         -16.58577403043060    2.59248552783545  -13.20483457028591
C         -13.65728801021807    3.71844496862434  -12.05321837108436
N         -13.19686870525251    4.76921296634581  -12.01421444466713
C         -14.04982684880489   -0.06480585350252  -12.24065583264632
C         -12.93964563471787   -0.94622679111041  -12.18283634105653
C         -11.75200157420040   -0.20478735979160  -11.71260736085855
O         -10.62011676567104   -0.61300734360043  -11.58601540629931
C         -13.04056743352532   -2.27795565972303  -12.50456372050723
C         -14.29507712620708   -2.76420358528540  -12.88817367451059
C         -15.39843052319806   -1.87791323852258  -12.93138445046041
C         -15.29573512966650   -0.52838430991394  -12.61623009178843
S         -16.85417014677570   -2.69197657978735  -13.41540872076374
C         -15.97416285334036   -4.19100812537419  -13.55514996051092
C         -14.65759964937319   -4.08926986681050  -13.25419290336809
Br        -16.87740770010825   -5.74845770171594  -14.07924015333206
H           1.57791539341957    9.52666334875789   -6.30846788915824
H           4.60267049281439   12.97513834925136   -4.29525106761055
H           3.63473856642067    9.17967946315088   -8.17814198820580
H          -0.27129633449703   12.90512657070752   -1.29559500744614
H          -1.47679377393562   10.83473283094960   -3.01188869634762
H          -5.84828331872624   10.98467157117288   -0.93494068121789
H          -3.01910515533347    9.65215443429039   -3.28376693651553
H          -6.02651068659624   10.17284309650912   -3.13886805720843
H          -2.28948769491717    8.56036980607034   -5.07757421804178
H          -1.32268874556906    8.95468171188626   -7.23448198175745
H          -2.87597094262588    9.39565475190034   -7.95361420177724
H          -2.30122801791146    6.65315057415031   -6.75462231752992
H          -2.13616429994752    7.00336963069693   -8.48081142412479
H          -4.46868641107879    7.58118632137887   -8.69783915634180
H          -4.59929080482111    5.16986450068031   -6.02111069397087
H          -3.16631475791309    4.57866670556544   -6.90934106027608
H          -4.76566754601487    3.89175036116135   -7.24821300713723
H          -6.72772012444467    6.10332293258240   -7.99538678907831
H          -8.97298447702140    7.19559976012803   -6.19246712714964
H          -8.93621704910694    5.23401466671917   -8.41115076645676
H         -13.78913077356813    4.78962594911108   -8.37776726407563
H         -10.10004335722123    3.72379752809389   -9.21015461044392
H         -13.06253177180649    3.21129043231861   -9.73643253797266
H         -10.49119944101091    1.65928692390097  -10.39801372781320
H         -12.17985849022115   -2.92656609131437  -12.45947606791177
H         -16.16373680420252    0.10891145089962  -12.65567752177250
H         -13.96954324991236   -4.91409659017541  -13.28649500132491
