126
 SCF done       -218.136942102630          0.000352602265
C         -16.36281777423077   -6.23091996805890   13.17317176799577
C         -15.62556815865837   -7.13484294500607   13.92061757668850
C         -15.03851391689594   -8.29464368127176   13.39369289586958
N         -14.54113178082098   -9.25793440681130   13.00817244505550
C         -15.39145960390083   -6.99507416230158   15.29809272532979
N         -15.16368534107399   -6.92872571289187   16.42352987101376
C         -16.58330524991181   -6.31194387765281   11.72424055192678
C         -17.39180490992542   -5.21946471490779   11.33409155378524
C         -17.74187868651589   -4.97634036886424   10.03067854549769
C         -17.26457285290319   -5.85785083428566    9.05315467028892
C         -16.45639578226818   -6.94501976797530    9.45005936618199
C         -16.10434273486171   -7.19140581163168   10.77467132472997
S         -15.98955656797049   -7.91928242910217    8.08505074270833
C         -16.89761704210490   -6.87516258021424    7.02337456960023
C         -17.49956941395229   -5.83898383564782    7.64918255476870
Br        -17.00488358098783   -7.28154782728950    5.19752214127304
C         -17.71241430933972   -4.41148811201986   12.53030509388532
O         -18.51301337561118   -3.49779602687402   12.58813171040184
C         -16.93817002502338   -5.01836597081040   13.63437959806058
C         -16.87455961779164   -4.42303572891159   14.91185160979762
C         -16.84999387503607   -3.05762012514469   15.07752241602146
C         -16.48616015706324   -2.17644788479080   14.04066132211333
C         -16.82655339963619   -0.84268572569581   13.84123754254247
C         -16.45082467269235   -0.34617724468541   12.60335127363906
C         -15.75889855510987   -1.26948365627449   11.82440799205459
S         -15.49137010554951   -2.73670051665487   12.71643580580117
C         -15.45434185732562   -1.27955002040098   10.45243867717426
C         -15.72800901118926   -0.34490491654506    9.45684746027430
C         -15.47107596113204   -0.81103336072489    8.18134799135729
C         -14.97815174754426   -2.11554944258741    8.14243569765357
S         -14.81546186314291   -2.74561639708626    9.76394692821516
C         -14.69437627482114   -2.91028717248731    7.02614268789483
C         -14.18483885674446   -4.18014836208454    7.11020765183180
C         -13.99585730120868   -5.04273884205222    6.02801152669342
C         -13.43330300007952   -6.32555868653279    6.06313978214633
C         -13.44331720160196   -6.97425631352284    4.85258756000513
C         -14.03919314570506   -6.22899776552960    3.82564573612104
S         -14.52670036109573   -4.65660490212309    4.41361904714349
C         -14.36720654128862   -6.63194516682101    2.53720254070248
C         -14.11239518042823   -7.87389258077954    1.91638350273417
C         -14.69264908605756   -8.00828638733641    0.69203998871005
C         -15.45899041517099   -6.88193715262624    0.28566791786268
S         -15.32338436461911   -5.60822216312081    1.50400678308430
C         -16.18775793916971   -6.72357091886187   -0.85204116719650
C         -16.97527273622204   -5.54048954797099   -1.12146356105533
C         -16.80441491396780   -4.86408370676659   -2.33960133703507
C         -17.36392488278336   -3.62690706530624   -2.57289108289978
C         -18.13656832190711   -3.00297108586293   -1.59576975562163
C         -18.38180648407816   -3.68119840169857   -0.42525003459873
C         -17.84985572427021   -4.95838057606039   -0.19606370097358
N         -18.37391924169638   -5.48184024932728    0.97429665387009
C         -18.37172801196992   -6.86175979789615    1.38208663013804
C         -19.20796086699422   -4.58314678632532    1.58775725165981
O         -19.80635094118496   -4.77973010845242    2.61628477442905
C         -19.26069929009041   -3.32122181772031    0.73061943146623
C         -20.72394390730357   -3.07375846650970    0.32170793341738
C         -21.13238318312577   -4.08607437013718   -0.75009053481779
O         -21.04566907985554   -5.29096801646666   -0.68887540125676
N         -21.59301512622798   -3.38672354925328   -1.82840120103392
C         -22.03890279135570   -4.01030518741660   -3.04383065904374
C         -21.51886426804481   -2.01508021418674   -1.61886623931881
C         -21.88363061723430   -0.99499889850558   -2.46876315042688
C         -21.71244296435496    0.32908256088618   -2.03683446149959
C         -21.16272740660343    0.56573207855434   -0.77066343074021
C         -20.80472565234075   -0.46818773796039    0.07877163962284
C         -20.98864932482432   -1.76517337737996   -0.34656360930488
C         -22.09183219149646    1.46936361884904   -2.83925859644988
C         -22.76155278437455    1.44319471151843   -4.00860925413368
C         -23.14775778675187    2.59626994709191   -4.75055001262790
S         -24.06957628950010    2.37121846681123   -6.22851109554545
C         -24.14046722016613    4.06706855066098   -6.46117641151812
C         -23.48402527767578    4.76816563199169   -5.45354476540271
C         -22.92484352734139    3.93693266286032   -4.48986090318446
C         -23.57062493358081    6.25778340397952   -5.69483125215603
C         -24.31224241459683    6.96447903030635   -4.55719821987375
C         -22.18158283793520    6.86918943594078   -5.89755901843311
C         -24.37348098481306    6.28269513531354   -6.97516021506030
C         -24.68284715129236    4.99125422986019   -7.38860936371398
S         -25.59652209244930    4.97161044174583   -8.83920006600555
C         -25.56762224568281    6.72266236155773   -8.89765261843629
C         -24.87538547550893    7.25971153679127   -7.83127637068711
C         -26.23036722838330    7.38235118983853   -9.98653401806813
C         -26.29700484066603    8.70068500587977  -10.16673542043833
H         -18.36048086418545   -4.13212946445429    9.76857459912281
H         -15.48650918581430   -8.03802973072562   11.02422760619828
H         -18.09917430431427   -5.10116625625310    7.14749233749543
H         -16.88133070983645   -5.05544516370375   15.78985427031145
H         -17.08670089975462   -2.62635185239559   16.04041165179772
H         -17.41499381715445   -0.29101092475512   14.55278894967419
H         -16.70136572978043    0.63879943773786   12.25115490157098
H         -16.12581447069482    0.62985197003364    9.67482438365706
H         -15.64585935669753   -0.24039443759847    7.28620630416214
H         -14.91194193265842   -2.49224458918971    6.05139652655307
H         -13.91721421020548   -4.56698251281554    8.08612169478426
H         -13.04685953249523   -6.74912130766111    6.97334351588519
H         -13.07041190514344   -7.97020803670283    4.69851096452975
H         -13.51929095951789   -8.63353333992283    2.39236347331972
H         -14.62422684548338   -8.88761285857756    0.07677344721145
H         -16.09192798515978   -7.46411480934543   -1.63472274758661
H         -16.17142495509509   -5.31637661296655   -3.08876359027527
H         -17.18782712316959   -3.12862144835381   -3.51380829195716
H         -18.55269947567832   -2.02108671072736   -1.76402467085665
H         -17.50107737727291   -7.11285322039436    1.99071221250274
H         -18.40502088639849   -7.50583188547161    0.50422292766524
H         -19.26472606827354   -7.01709764619485    1.98753742126194
H         -18.89153384440486   -2.46021848875487    1.29404183758968
H         -21.34467614007814   -3.21154388167041    1.21471797132012
H         -21.95449038140413   -5.08766366455481   -2.90658357586851
H         -21.41415984260074   -3.70112632153569   -3.88456667864842
H         -23.07885114992146   -3.75004379102122   -3.25064923433805
H         -22.28892605128515   -1.20927758084564   -3.44370057853643
H         -21.02647697750967    1.58648039202718   -0.44543375210841
H         -20.39417159054797   -0.25846047008404    1.05504453287709
H         -21.82180197679044    2.42908457719371   -2.42032672473541
H         -23.06304453207170    0.50074813005891   -4.44409726278974
H         -22.37796165191001    4.28236720304622   -3.63188624941833
H         -23.75432630237028    6.86674276978265   -3.62898207466349
H         -25.29794002361112    6.52570419481916   -4.41947891623560
H         -24.42992438701863    8.02075427018911   -4.78668178941363
H         -21.59283133386409    6.77043699580864   -4.98868476810001
H         -22.26986927261925    7.92398576407210   -6.14620436245207
H         -21.66099149289678    6.36255786179275   -6.70718950174966
H         -24.74790346001415    8.31741922485691   -7.69153855570916
H         -26.70398703416946    6.72011951214602  -10.69994538780173
H         -25.84199942776681    9.39755792317128   -9.48468544050521
H         -26.81367191489770    9.12276020798823  -11.01006390831174
