103
 SCF done       -166.014303024440          0.000672844549
C          -7.82600772497474    6.68486446358067   -9.67471045153653
C          -6.90296295131052    5.82270171012865  -10.22229210020599
C          -6.60569997499853    5.75370499159648  -11.59747473625871
N          -6.31413965972451    5.64482186600861  -12.70356055156852
C          -6.11524072468610    4.89673772011987   -9.51234234837641
N          -5.43298187770406    4.11761081489921   -9.01135107795250
C          -8.61198606412072    7.65640704498120  -10.42715791678228
C          -9.42058415732633    8.38582513460305   -9.52096696324768
C         -10.27638882985466    9.38079222538956   -9.92280972431176
C         -10.34050124454271    9.67288396340521  -11.28999717844157
C          -9.53155742310197    8.93924405415913  -12.18858861225293
C          -8.66480177701303    7.93257825249588  -11.78094898408611
S          -9.76752091623477    9.45890276538546  -13.83070056333771
C         -10.93278249455598   10.63944332328211  -13.29282434457025
C         -11.13666887440102   10.64568817318360  -11.95441778590629
Br        -11.77199414106779   11.75145887712919  -14.54972794846037
C          -9.17347550247559    7.89302492395992   -8.15234325240870
O          -9.70548944000199    8.30436444517783   -7.13557369114844
C          -8.18330444206319    6.82110016406858   -8.27899916536491
C          -7.68344056458184    6.05116844911752   -7.25515136174673
C          -7.91895338757870    6.09224863227572   -5.87720588342941
S          -8.95848061364746    7.21521483694052   -5.04157270152218
C          -8.55564969783303    6.51282527884625   -3.50769186866045
C          -7.68303388042079    5.43299775057448   -3.64074177254783
C          -7.31706044776658    5.20588155253861   -4.96622118093278
C          -6.39305259118081    4.10086466951200   -5.37100661113630
C          -5.68007314611787    3.49817991282281   -4.16441486702685
C          -6.67581112090808    3.21964034714290   -3.04121070614253
N          -5.99894425228298    2.54885427352897   -1.94144856313146
C          -7.22125016206585    4.55324007318671   -2.52274651025552
C          -9.14933198179762    7.12019806430395   -2.35872116440733
C          -8.73607793704013    7.00485605176364   -1.08011391187244
C          -9.30749484923637    7.64065294656459    0.07934103925642
C         -10.02628472644953    8.77001398029838    0.17305194608518
C         -10.37132151240196    9.68834362523291   -0.95559214696306
C         -10.49071597916578    9.24470859984495    1.52649669055938
N          -9.84833610084239   10.49855112740875    1.84890100534284
C         -10.29489479670725   11.36050909167736    2.78866617060166
C          -9.59583602426554   12.44613030728436    3.20917063747525
C         -10.06126974655526   13.35585817995569    4.17702887873845
C          -9.36932120315784   14.46386738507861    4.58504774016445
C          -9.74417899324720   15.40445780647546    5.57588147179523
C          -8.85086514510628   16.41307982164682    5.76391952210732
C          -7.71507270102391   16.34266408863892    4.92271782552215
S          -7.81254075846659   14.92818598098265    3.89543900842495
C          -6.65955386039201   17.22333437495418    4.84020151090266
C          -6.44819682767856   18.41133013465245    5.57912224833016
C          -5.32629056044962   19.08933986127511    5.22703789102131
C          -4.58286323980915   18.49685160076998    4.16625800481168
S          -5.35191232384199   16.98997702655319    3.69277936933805
C          -3.42720884306304   18.98828846915515    3.63930288068370
C          -2.69351205850053   18.50092111445976    2.51842641265985
S          -0.94410380828035   18.53664823706808    2.63255937535450
C          -0.79364036233179   17.85583048183693    1.06483231678812
C          -1.99833904094732   17.64326708496045    0.46810057609676
C          -3.09363694187991   18.02236787110022    1.28749053809885
C          -4.50780789408413   18.00761377608066    0.78227071981432
C          -5.24518948910558   19.25977473520472    1.16394733653395
C          -6.50981603999851   19.29272243530254    1.53842881704979
C          -4.51937217891330   17.86368149409251   -0.74828006137195
C          -3.61167878538920   16.71941378043321   -1.18156618996445
C          -2.15843812325923   17.09962087589664   -0.91843664653031
H         -10.87722274629244    9.91873405566864   -9.20632608514956
H          -8.07076299983694    7.40342548064050  -12.50685259908984
H         -11.82005219732468   11.30763783063750  -11.45450162455109
H          -6.98795134313639    5.27662727483475   -7.54723500360872
H          -5.65087749923772    4.46085533493543   -6.08669352887444
H          -6.97572098454446    3.32363265118682   -5.87742200011166
H          -4.91978031228150    4.18496887494831   -3.79037289578228
H          -5.18058050359437    2.57474803732387   -4.46129498315811
H          -7.51466654461791    2.62654240428856   -3.45398448781412
H          -6.65485489898695    2.33235704124378   -1.19858158995860
H          -5.58708217194352    1.67723465573667   -2.25567120412872
H          -6.41436693603250    5.03984009087339   -1.96684892082661
H          -8.04836708972172    4.37293253169798   -1.83131270732173
H         -10.00100448465205    7.74180045599006   -2.59008883743854
H          -7.89178973836407    6.36981391574688   -0.85802152123709
H          -9.07586139641751    7.12916927527541    1.00751404489030
H          -9.58234889220364    9.70525931436412   -1.70386151025413
H         -10.52505283558870   10.69786797255683   -0.57881958116763
H         -11.29473888453332    9.37045659396204   -1.44042994540777
H         -10.27500210047344    8.48416834493482    2.29121682646589
H         -11.57363659058099    9.41205147878600    1.51063199397627
H          -8.88513799298692   10.59196568665547    1.56105247016935
H         -11.28438970270018   11.15557441706005    3.17459490111945
H          -8.61615770029617   12.63330423843214    2.78880794236076
H         -11.02174758564905   13.16739935374511    4.63878301311296
H         -10.66709371249945   15.30086272887747    6.11985773649111
H          -8.97667272368708   17.20934729072228    6.47570831776428
H          -7.13334445139144   18.72948198207991    6.34481562384035
H          -5.00737242391772   20.01502902126835    5.67302162332631
H          -2.97041804081716   19.81303951750873    4.17382375767570
H           0.18238167691987   17.65466035533082    0.66912752903908
H          -5.03476335840969   17.14258955833108    1.20363529612383
H          -4.67627083693964   20.17640973402285    1.07159195085052
H          -7.09665257042070   18.39337920100560    1.63405874683794
H          -7.01217958815080   20.21592925650565    1.77301517615740
H          -4.17541190257413   18.79432842512039   -1.20627301802758
H          -5.54546216235829   17.68744929178852   -1.07519167788880
H          -3.86844292721876   15.82038278621230   -0.61724624064959
H          -3.75058325959445   16.50511775243027   -2.24288104282951
H          -1.84727349032029   17.86581349837239   -1.63643130520327
H          -1.50044517928851   16.23848118833331   -1.05752503044364
