108
 SCF done       -188.742328080321          0.000599233510
C          -4.01533034321751    2.61880076987243    2.90406691110594
C          -3.89297989976342    1.24899044587463    2.99484210133060
C          -2.67968104429975    0.57892713213484    3.24046145210202
N          -1.72715247030963   -0.03287316915810    3.43991387025904
C          -4.93977716095656    0.31521101320510    2.87663815669773
N          -5.72355078150339   -0.52396997650665    2.80858876613601
C          -2.91672177572885    3.57050265268654    3.06827385772354
C          -3.43743120851255    4.88304611073875    2.96660470522420
C          -2.65051389157232    6.00244555374189    3.06838413587184
C          -1.27835302285840    5.81935352563762    3.27709694152582
C          -0.76765666779727    4.50567748287424    3.37715709678760
C          -1.56620828221530    3.37168552624816    3.27768113584205
S           0.95299532561540    4.50601413821883    3.62795721269065
C           0.96032702311704    6.24916837802719    3.59242823297856
C          -0.25984428669206    6.80401350892777    3.40501060925444
Br          2.58037846316945    7.17233213044953    3.80542031734917
C          -4.89597912198752    4.80891535839675    2.72390129597615
O          -5.65083129457026    5.75496647015390    2.59943324718126
C          -5.21280031166198    3.37292144035949    2.65604399017386
C          -6.45573783666985    2.85659624813587    2.33585846091484
C          -7.59861874180961    3.60143773848091    2.08270075081290
C          -8.78667313692507    3.01811700160093    1.67376049665930
C          -9.99713283003147    3.67001575408957    1.35751040639954
C         -10.98683771083456    2.83282571915353    0.92155003418427
C         -10.60125218946730    1.48024629470735    0.87769340906907
S          -8.95030117088715    1.29608782666676    1.42791440289054
C         -11.31621804847794    0.37930032112234    0.43239222456327
C         -12.61872328036559    0.32191971740937   -0.10827396191126
C         -12.98215921598240   -0.92294477485709   -0.52734755316627
C         -11.99700406885607   -1.92278270643504   -0.32328912376862
S         -10.58654544938958   -1.20318939160603    0.43466872462902
C         -12.05809388288675   -3.21419872064220   -0.78401988661416
C         -11.13412687356546   -4.26070326700713   -0.58929614639233
S         -10.94170345441005   -5.40395940437604   -1.90429917540748
C          -9.72276947792904   -6.28192755108114   -1.03275912480065
C          -9.54005342236664   -5.74528385843991    0.23855895247349
C         -10.31887434607875   -4.60897648721140    0.48636088769652
C         -10.32820077599543   -3.96127545348699    1.83240390610231
C          -9.86697951716897   -4.95023942135898    2.89830453858997
C          -8.48569978482734   -5.49023621105490    2.51244972576492
O          -7.91698582994126   -6.33105143022140    3.49863068434478
C          -7.33847079962790   -5.65696420437963    4.58821899325093
C          -8.60738807444098   -6.34005027611625    1.24497964932916
C          -9.00570742536114   -7.35827563156669   -1.61174226024442
C          -9.06370608683807   -7.67705954463744   -2.92839754053526
C          -8.30961210048841   -8.67382101806385   -3.59932981493973
S          -8.15711666178717   -8.51870319916315   -5.33181914332509
C          -7.10766616725948   -9.90026831478184   -5.41876088956037
C          -6.92508305574026  -10.46107162812212   -4.16419159853978
C          -7.60167497906698   -9.77539865522109   -3.14125965115854
C          -7.56791083527918  -10.25136973401096   -1.72309408583636
C          -7.14377346886447  -11.71570779370923   -1.65313536197589
C          -5.83748396852507  -11.91338793843989   -2.42840950876591
O          -5.31236502227191  -13.22268970963045   -2.31721931507854
C          -4.65052398580057  -13.49878101928320   -1.10967263557620
C          -6.09319188017645  -11.67993743680980   -3.91868026991659
C          -6.52564286587679  -10.31718000365069   -6.64875891548133
C          -6.67752556843548   -9.65253045850654   -7.81115510044641
N          -6.08445841990169  -10.03882006337373   -8.98102262335239
C          -6.15266081717996   -9.37691613957193  -10.16015162609705
S          -7.09050950173545   -7.92512829963540  -10.30783579466059
C          -6.61039903139822   -7.80304602821430  -11.97386260487734
N          -7.09627323374730   -6.72478674517077  -12.70670679272575
O          -6.76044178255900   -6.62993654112901  -13.87566153802165
O          -7.82973443824521   -5.94416824285310  -12.11681092949250
C          -5.78247542766966   -8.81935525191490  -12.37381131542670
C          -5.50464684115954   -9.73831503717208  -11.34975856799992
C          -4.66046600014746  -10.90895378820587  -11.48548365173610
C          -3.95418722598438  -11.22603471331723  -12.56584405836363
H          -3.07700676961777    6.98984747178722    2.98522720156228
H          -1.12664946390410    2.39172987511173    3.35854488579789
H          -0.43713207195993    7.86297003395904    3.35689561200702
H          -6.54875647327067    1.78045168648047    2.24834608344929
H          -7.56366433689741    4.67633822376460    2.18196667190892
H         -10.09926014336435    4.73639934104745    1.45222632570096
H         -11.96984674674319    3.15709705689293    0.62993060245356
H         -13.24087542732998    1.19495658733399   -0.18783445877440
H         -13.92902289245417   -1.15880717913442   -0.98033190928981
H         -12.87489667851946   -3.43340764768989   -1.46221469611433
H         -11.32811371991491   -3.58573664384724    2.05950097218196
H          -9.64472672798632   -3.10741121131439    1.83515792022285
H         -10.56620665292432   -5.78467894442262    2.98046950750166
H          -9.81876830061973   -4.44704108283037    3.86412461650566
H          -7.81357031842600   -4.63611660934971    2.32814621728568
H          -6.84437519768027   -6.41864516648372    5.18841768981819
H          -8.08802455005125   -5.14790591392917    5.20381488504847
H          -6.59925282335150   -4.92056122638638    4.25164812904291
H          -8.97358051736849   -7.32587622366815    1.54854938305670
H          -7.61618619530605   -6.48132635336541    0.80909423713526
H          -8.33500129918231   -7.88094286158344   -0.94956370479251
H          -9.69297268193506   -7.06969645182241   -3.56846162266685
H          -8.55296337248555  -10.12622648354601   -1.26794947613267
H          -6.85524283654534   -9.64515113284275   -1.15332968591434
H          -7.91203232572247  -12.35489502044100   -2.09184577849648
H          -7.01364440715877  -12.00695031063168   -0.61013765925775
H          -5.09190052714554  -11.18798804291408   -2.05968824726991
H          -4.21224362159177  -14.48837184218271   -1.22324835693945
H          -5.33479751480816  -13.50792182924005   -0.25423096498494
H          -3.85485079128741  -12.76815932293208   -0.91765124323826
H          -6.60601115783804  -12.56618329127912   -4.30471264609278
H          -5.13658482752253  -11.60393566756952   -4.43940250930696
H          -5.91545250971053  -11.20935645868377   -6.61477872034044
H          -7.28089606789905   -8.75841911591771   -7.86978052201164
H          -5.51248450792246  -10.87396819826803   -8.95339563990503
H          -5.40538056520355   -8.88084057117347  -13.37748938983678
H          -4.61632382089878  -11.56694099797592  -10.62625283131841
H          -3.94827265983060  -10.61710488243555  -13.45194721406497
H          -3.35164103708897  -12.11649261113111  -12.59527338174382
