96
 SCF done       -204.042365656428          0.000976885060
C          -0.85929155616102    0.75226509605878   -0.27645487320567
C          -0.95913199190117   -0.25312309266879    0.65106868642172
C           0.01975281868179   -1.24858148746069    0.84644545796641
N           0.78871966196787   -2.07572915856483    1.05157051494659
C          -2.05909507266548   -0.42380792770621    1.51708742595247
N          -2.92769525529346   -0.61905355983336    2.24211394587727
C           0.22877566527900    0.94339035498590   -1.22710631481170
C          -0.07416901820014    2.05958576033873   -2.04536865257054
C           0.79443972544519    2.53584867357572   -2.99711431930197
C           2.00226955837533    1.85499325982448   -3.17911229433434
C           2.27739308010330    0.71375983789490   -2.38653757238379
C           1.41192714740409    0.25039433693804   -1.40267571319827
S           3.81164656909568    0.00976968367559   -2.79124209144958
C           4.06253777824337    1.23967783274234   -4.00126802646110
C           3.04979894087310    2.13575795598262   -4.09727750010460
Br          5.62241457932544    1.21357976877385   -5.03743479522341
C          -1.40413008233926    2.58851061833060   -1.69064547146363
O          -1.94046058850542    3.56753801258452   -2.16169556221638
C          -1.86020615502428    1.76155950089525   -0.54020969122625
C          -2.93563408186626    2.09270724948417    0.23705172861131
C          -4.02521340363285    2.85883393922354   -0.24055841900251
S          -4.89693606861380    3.97700832487114    0.75869580234458
C          -5.99999677495682    4.37412882237989   -0.53008750222127
C          -5.71553685942765    3.61090766616201   -1.66661613791947
C          -4.61481876685469    2.76003390603295   -1.50484829959283
C          -4.20829202670429    1.73422842897527   -2.37830164613264
N          -3.88304305686061    0.80111969476833   -2.96021755838196
C          -6.55434511941010    3.68209956239565   -2.90189275996543
F          -7.87700935704434    3.64107737359347   -2.60859229408369
F          -6.38715433721442    4.83504155434362   -3.58168456365958
F          -6.34797668066262    2.68728630925979   -3.75871943914193
C          -7.00200874094357    5.35156964905561   -0.38454127958571
C          -7.37955448593292    5.89520035831372    0.81502524123997
C          -8.32067677341001    6.91673047096701    1.00807520339424
C          -8.83515342362694    7.78243224386004    0.06475911831579
C          -9.78416493295266    8.80823961924567    0.30636882402667
C         -10.05565875466472    9.59967273276222   -0.77145325542774
C          -9.32635728069580    9.24707066149671   -1.92485282388321
S          -8.31793389645954    7.85312179770131   -1.60167791766760
C          -9.28080171706825    9.83372732969050   -3.17593559255017
C          -9.97761730054918   10.94187240138160   -3.70546606763662
C          -9.63110817815584   11.26254304273744   -4.98516966498789
C          -8.63183266755370   10.42578629023915   -5.53993375638953
S          -8.17551305668894    9.18987571485829   -4.36310600341598
C          -8.01447682283575   10.47908425160206   -6.75888784516836
N          -7.04463531628959    9.58235680398671   -7.06168837024746
C          -6.27112784405204    9.47279200913013   -8.15927245484155
S          -6.41310062738359   10.54323730610832   -9.51112616266378
C          -5.10443743025999    9.69797119693635  -10.28642971680286
N          -4.73394929042879   10.14941629772132  -11.55741466965254
O          -3.83559108528352    9.56579465198692  -12.13187986467553
O          -5.35864490580911   11.10367553691440  -11.99284157249639
C          -4.59461129754041    8.66809841074733   -9.54590651302445
C          -5.25422518897535    8.50559262323162   -8.31161462216856
C          -4.97229539704382    7.51490847728196   -7.32145575182229
C          -3.92791759603437    6.65202248520675   -7.31325143508362
C          -3.77502289949534    5.72162281884727   -6.25421107113053
C          -2.72683391419955    4.89650956000299   -5.99407526908703
C          -1.38788103466621    4.80838882111843   -6.53317795691790
C          -0.62257714895315    5.84860812552626   -6.99360046861082
C           0.73079341564567    5.70867757396982   -7.36433076461151
N           1.83600972063651    5.63441430879377   -7.66397418801514
C          -1.05372679569684    7.19103238885543   -7.02396405482495
N          -1.34525208877362    8.30134089366090   -7.03272714586200
C          -0.90557407729171    3.45788731270382   -6.26247737058935
C          -1.81187025514553    2.81561753836915   -5.37876034869335
C          -2.92874985395856    3.73330286128690   -5.08198303730162
O          -3.84127981009603    3.59017851950429   -4.30433401223965
C          -1.60712290290608    1.53643605683923   -4.92207607870978
C          -0.45130633771542    0.87032820769079   -5.34233389809978
C           0.43241067085761    1.50962014467227   -6.24307000156319
C           0.22185424278580    2.79910980689139   -6.71571145117029
S           1.78312700949092    0.49235103473369   -6.64243815263021
C           1.17311416665573   -0.74417576459822   -5.57306289189102
C           0.00394983633722   -0.42403008504696   -4.97001181713045
Br          2.15030038761527   -2.32834405506699   -5.34355346515762
H           0.55128613119519    3.40666197112502   -3.58562157215496
H           1.67648266525376   -0.60821979291080   -0.80814793384151
H           3.04116232428142    2.95934666754483   -4.78828032496521
H          -2.97469801195950    1.78068090543419    1.27310492612410
H          -7.51880703665149    5.63534297796994   -1.28824653658875
H          -6.93522477687706    5.47945169028338    1.71194126399774
H          -8.65580355606687    7.08337869302037    2.02361250119895
H         -10.23375377551925    8.93276420174081    1.27569344259237
H         -10.74086755988785   10.42829498265620   -0.75982371081794
H         -10.71183919047979   11.47242136099895   -3.12640997650658
H         -10.05416162800593   12.07757901283411   -5.54424914763589
H          -8.26183950782865   11.22485743893507   -7.49803795318630
H          -6.84777894769948    8.90717142956793   -6.32716551933115
H          -3.78030492848944    8.06101077668847   -9.89510985405759
H          -5.64563525743361    7.46006168562792   -6.47396345440293
H          -3.20678172827999    6.65619111015533   -8.11514158237788
H          -4.62677889139846    5.59037262921042   -5.59343011822087
H          -2.31794686430440    1.06281696325448   -4.26121872820242
H           0.91355530303745    3.24488101794135   -7.41165895376782
H          -0.51845237263875   -1.06758245547936   -4.28614843592942
