105
 SCF done       -201.281907736428          0.000992595738
C          -4.16901443008101   -7.08851887616902   -6.70653782092275
C          -4.86827175715364   -7.84687209021831   -5.79530090340908
C          -4.56417358363452   -9.19068092114266   -5.49593889965820
N          -4.37061500865059  -10.28814120266045   -5.21782380630657
C          -6.00369751259074   -7.44670987739160   -5.06235210998115
N          -6.94921779280990   -7.24151439842210   -4.44098016512096
C          -3.05224754033715   -7.56592775982844   -7.52104349511959
C          -2.65092118940895   -6.52674736307886   -8.39666469832409
C          -1.63275397147808   -6.67531380380835   -9.30534374559311
C          -0.97506063410735   -7.90961919905457   -9.35399720349298
C          -1.37819062645411   -8.93870472148394   -8.47236952021947
C          -2.40924677459546   -8.78827159833648   -7.55214812517442
S          -0.43476829901482  -10.38083984295104   -8.69883347651023
C           0.47384316447424   -9.59142842924062   -9.96027127348281
C           0.09415496988576   -8.31433737265540  -10.19991450850861
Br          1.83809745134823  -10.52892339215861  -10.84336284650266
C          -3.49165667760562   -5.33422204540232   -8.15614693082958
O          -3.42043002591735   -4.26845079954301   -8.73626526296052
C          -4.41714246353353   -5.71764038039355   -7.07410228787675
C          -5.35115316745819   -4.88386520420467   -6.49873141125992
C          -5.62963041036297   -3.56868990259981   -6.85994079344956
C          -6.62510817988157   -2.85944147140877   -6.20833504345344
C          -7.08289208271132   -1.54241708598553   -6.43496628100146
C          -8.11615465364978   -1.16130176323236   -5.62025356124555
C          -8.51046661025110   -2.16215982182101   -4.71401370794374
S          -7.53954270859398   -3.59633959301969   -4.91782774137752
C          -9.49667669144096   -2.20478789625979   -3.73407486387265
C         -10.45946666611891   -1.27241938238104   -3.30288357324251
C         -11.25660078550570   -1.74436874857351   -2.29576934741208
C         -10.94966521493970   -3.06268930090193   -1.87995154125467
S          -9.61566234291198   -3.67723608218493   -2.81996459994476
C         -11.61236889863331   -3.82346228019052   -0.93680896973101
C         -11.25432613952763   -5.11370614854538   -0.53188100290829
S         -12.39765403500446   -6.11936421493662    0.35501078218215
C         -11.35058041613782   -7.52325540137038    0.42582497196502
C         -10.13713060354412   -7.19532925282274   -0.20077990409791
C         -10.09771878863612   -5.87365512794315   -0.70902778470990
O          -8.88773960621637   -5.60560258048674   -1.22637479323010
C          -8.16158657106663   -6.74288460884081   -1.09276467114952
N          -6.81643947348072   -6.71253576243402   -1.54512339977269
O          -6.17859981098218   -7.73730010654840   -1.41656704061427
O          -6.39499468653532   -5.66513355711211   -1.98305748903530
C          -8.85885094344683   -7.74771642021323   -0.47491546610471
C         -11.72620653472044   -8.77932662374803    0.92883690847298
S         -10.67658225388659  -10.13091416826854    0.60463256072263
C         -11.82623292181537  -11.25256521879450    1.27599327315316
C         -12.98347530471018  -10.59156355039456    1.70272347200461
C         -12.88936230618647   -9.19889733245217    1.58676827420530
C         -13.86411863065966   -8.23676022740716    2.19975797874007
C         -13.16853946103235   -7.41197323863555    3.29083348600885
C         -15.05775237755944   -8.97038567878842    2.81978752368252
C         -15.39686148135909  -10.22982747459098    2.04266498704764
C         -14.26134487663305  -11.25404961261298    2.15089811205775
C         -14.63446094636356  -12.48815442281152    1.31761596642886
C         -11.48364995817050  -12.61777936888744    1.34398972171178
C         -10.27730471197083  -13.12098822118539    0.95263240074967
C          -9.88887700459082  -14.47422002994761    1.03250870566514
C         -10.64574190255001  -15.61319159451329    1.08300878052063
C         -12.02647746704084  -15.90393982699646    0.77910501109680
C         -12.83893038534652  -15.23629227325233   -0.10479662533116
C         -14.15674779145337  -15.62707949331240   -0.41294161586750
N         -15.24412999567384  -15.88206539445910   -0.68019049391674
C         -12.44009309761465  -14.11854610527133   -0.86232148024235
N         -12.17856716503698  -13.21866429022382   -1.52572629827333
C         -12.34141797190364  -17.20097401980452    1.37502296188512
C         -11.13897961573652  -17.79474898250907    1.83266080067767
C         -10.01954638097620  -16.85968272028613    1.59866476500311
O          -8.84413184951240  -17.04317767823342    1.81963631044103
C         -11.10268730914977  -19.04260113142920    2.40462285513543
C         -12.31239587711724  -19.73206326389610    2.54325905886912
C         -13.50984607123589  -19.12301297577027    2.09937940321171
C         -13.54553391518740  -17.86376928806115    1.51206082718416
S         -14.88782912091944  -20.14379009437257    2.37866868871678
C         -13.85018902022388  -21.36092241104439    3.07357051500033
C         -12.53971312397832  -21.02156361203796    3.09800408742045
Br        -14.59673295532959  -22.96230053582547    3.70324295610882
H          -1.35240726767527   -5.86570246886407   -9.96086766428637
H          -2.67712001871792   -9.60398898410483   -6.90203121922814
H           0.54676681456871   -7.68250170596050  -10.94219250946797
H          -5.93347874179489   -5.28854928366120   -5.67905438183485
H          -5.07724326678830   -3.10142513718106   -7.66157215888231
H          -6.64190186260527   -0.91587827656588   -7.18995635729557
H          -8.59129504298002   -0.19668666706336   -5.65241054762278
H         -10.54574458774310   -0.29199610960573   -3.73627744954983
H         -12.05177459813441   -1.18164767173203   -1.83894321727568
H         -12.51434047512110   -3.41279327640446   -0.50360188036135
H          -8.48493981251909   -8.72567741321305   -0.25567534645301
H         -14.22320617684145   -7.55822496742464    1.41678277062991
H         -12.33604988461247   -6.83609950528067    2.89994512236725
H         -12.79022186675495   -8.07257956763220    4.06823116188839
H         -13.88169179507251   -6.72405221884972    3.73758127175968
H         -15.91695909597901   -8.29958552242793    2.85177015329201
H         -14.81651961377164   -9.24896793763320    3.84823069146672
H         -15.55840003037896   -9.98651888673283    0.99038804240007
H         -16.31490733695769  -10.67006188973884    2.43454652183697
H         -14.15996958385605  -11.55179744810471    3.20257559799000
H         -14.32061640837084  -12.36726686226012    0.28372381357963
H         -15.71372501904095  -12.62231961159652    1.32908889964130
H         -14.19872926175350  -13.40066218160179    1.71384981173044
H         -12.20146196068340  -13.28318558041864    1.79742312000152
H          -9.51567104205613  -12.42583648686625    0.62228697616555
H          -8.82172145234491  -14.65555337544578    1.12640138193263
H         -10.17105889819365  -19.47498996618370    2.73404467472358
H         -14.48282508099799  -17.43929377416745    1.19236831561219
H         -11.76340465820386  -21.65264057479709    3.49044484038210
