96
 SCF done       -210.572643635398          0.000779443147
C          -2.09645052863976    4.14961099392459   -1.37156374471292
C          -1.07680825159110    3.49201899482156   -0.73127519698248
C           0.29000549768900    3.67018844785290   -1.03123057579719
N           1.41617194822334    3.76906946932256   -1.22999508814205
C          -1.24230510429000    2.55396189128871    0.30822368236814
N          -1.30889762183673    1.78519368689676    1.15920766536188
C          -1.93300813807031    5.12521254057838   -2.44640702084519
C          -3.21493331301823    5.58501709704941   -2.84357415158946
C          -3.39926973835472    6.51392684140793   -3.83858582293130
C          -2.25990325722607    7.01630067197331   -4.47619076275218
C          -0.98337639282268    6.55323074830084   -4.07530230019700
C          -0.79941647181776    5.61281424720652   -3.06755854559637
S           0.28484870225412    7.30393051436355   -4.99298811218748
C          -0.89852821375814    8.21765436835220   -5.89087524408033
C          -2.17945219926025    7.97382654537685   -5.52324308818995
Br         -0.33114265146571    9.40438250748532   -7.22634871158125
C          -4.23205314120852    4.91141169548165   -2.02741771159033
O          -5.44439890358384    5.06849644097272   -2.09604472415335
C          -3.51727676438040    4.02034290363343   -1.12141398392227
C          -4.12721297628279    3.19842828309901   -0.20080561705873
C          -5.48271389198346    3.03133813397097    0.07292684318330
S          -6.83421811144860    3.86067319768696   -0.69725994213296
C          -7.98923581829420    2.99786017588735    0.28290731339200
C          -7.36401779183197    2.11859383148305    1.14877210637666
C          -5.95719976894038    2.13304703079148    1.05174314578715
C          -5.36356366855622    1.25815701556617    1.99029986695687
C          -6.29849230249994    0.62433191828820    2.76003793506126
C          -6.05868380884657   -0.31555005078165    3.85868825772268
O          -4.98126273892037   -0.73031461570621    4.19393939471203
O          -7.22002430290758   -0.64958694537576    4.45263181558396
C          -7.12326197480982   -1.55778182679635    5.54128424889510
S          -7.94674688903579    1.03985611215523    2.37606008935941
N          -9.33642414935544    3.15516549500548    0.24669153547279
C         -10.08883461942879    4.05726648352727   -0.42407101586945
S          -9.43570497821388    5.09308183901005   -1.64271788710571
C         -11.04221896963156    5.68630882823803   -1.96254246571258
N         -11.16989079482934    6.67268391338555   -2.95245756389637
O         -12.28070398772408    7.10106133674610   -3.18935614842547
O         -10.13899759946353    7.02178929234337   -3.49991152978511
C         -12.00985131690208    5.11021703282659   -1.18894796824775
C         -11.48517472589170    4.18021499126039   -0.26732371724685
C         -12.30006105180150    3.46051783976869    0.66521113088198
C         -11.86945240366098    2.90637586395172    1.82664332007858
C         -12.59304166098464    2.05346296404219    2.70901411468929
C         -13.95173133138227    1.66786482978228    2.60202315355314
C         -14.57735156097242    0.84084328969413    3.60773525939938
N         -15.84952920049095    0.44812970582275    3.43931089103037
C         -16.54684395787426    0.90546584077317    2.43074681778670
C         -15.94985754773841    1.79093355067066    1.47820484586185
N         -14.67952883961379    2.10224489834186    1.56504977663949
C         -16.71156942095410    2.29312060660337    0.39387029815901
N         -17.34703151771509    2.68282271914753   -0.47529466571850
C         -17.89718645836735    0.48918336092420    2.31572017305418
N         -18.99643027008111    0.17358706179327    2.25978513936125
C         -13.89204123968470    0.38677028515558    4.75841317111748
C         -12.51736328719258    0.68043627690791    4.80579092041263
C         -11.89279291707808    1.51484568081993    3.81166282954856
N         -10.59363572345509    1.69838981013586    4.06923123537252
S         -10.20912648906011    0.90771720221789    5.40780451697973
N         -11.64978131336739    0.29526359475459    5.74492906039977
C         -14.52268042937621   -0.36925848753440    5.79175594098099
C         -15.82928955496597   -0.35323668911358    6.15227275425595
C         -16.91500700302046    0.55093327426338    5.82003527028638
C         -16.81715442159666    1.90264592907711    5.61530211550800
C         -17.92475646830160    2.74457874048953    5.38793547278029
N         -18.78685680539294    3.47091989055669    5.17406523123246
C         -15.59319415425004    2.59740572725667    5.59192526021918
N         -14.61369727715206    3.19505638240352    5.53809051890523
C         -18.15313362155965   -0.19521270113627    5.98191573401418
C         -17.86700622955971   -1.41606691128146    6.64772686108756
C         -16.41481387358231   -1.51208327460185    6.89178079936750
O         -15.81082655018264   -2.36459411270499    7.49612528833627
C         -18.84476408262044   -2.33345716501733    6.94854615491864
C         -20.15643804703145   -2.04074350787830    6.55939042461231
C         -20.42602950405619   -0.82636655222050    5.87966957002222
C         -19.44206429661443    0.10959156169285    5.58923852959804
S         -22.10460312191236   -0.68023467146936    5.46976850882705
C         -22.42367386749850   -2.22491285254153    6.21198499705077
C         -21.32807564035249   -2.82416542600657    6.73854047705247
Br        -24.16893793944675   -2.90529605002018    6.22090487231893
H          -4.38866577573606    6.84229744053874   -4.11569468409180
H           0.19413573943249    5.29392042641493   -2.80064935775918
H          -3.03343524535949    8.44867739397702   -5.97062176785680
H          -3.48677635229155    2.57535039944811    0.40937024040415
H          -4.30852416517827    1.09572550998766    2.11944522080782
H          -8.14129724015697   -1.84185241013784    5.79484220135913
H          -6.63681418081356   -1.07555993500721    6.39143908117533
H          -6.53792797185871   -2.43250120716299    5.25202990026224
H          -9.86119564915240    2.50612053845959    0.82934780775922
H         -13.05082824629800    5.36891381418142   -1.26390863586856
H         -13.34508322822813    3.37325590228079    0.40381410072794
H         -10.87726346160684    3.11795371536806    2.20565436938686
H         -13.88644923045917   -1.07899851020305    6.30964969146846
H         -18.60616000477525   -3.25201146020214    7.46133976687828
H         -19.68831230937121    1.01345826131669    5.05697243084970
H         -21.34456387340778   -3.77942044053929    7.23063760433945
