93
 SCF done       -175.202680544943          0.000430501001
C          -1.63655298487001    0.92266011884228    3.35113574987866
C          -1.08765890255119    1.64796998773056    4.37754348405358
C           0.09822517784392    1.28969212801847    5.04873328462317
N           1.05695542454348    1.03585370648067    5.62731363644139
C          -1.69230997919843    2.79123964359771    4.94024603879396
N          -2.16182732995826    3.69619386773078    5.46849501631245
C          -1.15110332801564   -0.35505910125439    2.84652639092341
C          -2.12972627358622   -0.89328464947398    1.97544650804507
C          -1.96642281294419   -2.09921999969086    1.33949576334784
C          -0.78052738123986   -2.80522301033697    1.57237504533032
C           0.19295153759497   -2.25527534468672    2.43948050380387
C           0.02696292326878   -1.03597428773252    3.08563675494653
S           1.58481830448888   -3.28689039291808    2.57492064308954
C           0.84876621062454   -4.42953247202608    1.48269145507719
C          -0.37544873916385   -4.05897505804954    1.03778901770715
Br          1.76488465487238   -6.00417159281555    1.03505686906847
C          -3.27210997784352    0.04115381276098    1.87649986980928
O          -4.27968715821664   -0.12221026116943    1.22100027188562
C          -2.87934866593192    1.22151931536531    2.67479783407544
C          -3.46648034494511    2.45591268135257    2.60054043138402
C          -4.71132141658298    2.77570487220081    2.01613015347260
S          -4.82984209295424    4.30424536045039    1.17234977171703
C          -6.40544890868694    3.91528153540431    0.62896652828045
C          -6.86055846802469    2.71803746315348    1.09292009124603
C          -8.21314100188294    2.16964028946680    0.78636012666759
C          -5.90778077550501    2.06238780710159    1.92552796970872
C          -6.23353747328428    0.88516635814150    2.68177720082799
C          -5.73133645140777    0.59318902531942    3.89932207278320
C          -6.08477561908209   -0.56710107327225    4.64514828591610
C          -5.52796407189365   -0.87425015533850    5.83721218563250
C          -5.87765768903024   -2.03879419300695    6.59245217196607
C          -5.30811715259498   -2.41826998266760    7.74876646533166
C          -4.21638472728440   -1.64710532434407    8.42793789442861
C          -5.72825578835576   -3.66672687792582    8.48304660606809
N          -6.48091244085903   -4.58858592707489    7.67375810127921
C          -7.49953680841911   -5.35613206314052    8.09069821230049
C          -7.99694080718226   -5.44339755655510    9.35349849708997
C          -9.10525092120660   -6.24854181047269    9.68936078428959
S          -9.99026085539605   -7.23737246333740    8.55526661190905
C         -11.13637706132865   -7.84034633056820    9.75338696050225
C         -10.79203550635140   -7.29277629529442   10.99550669649352
C          -9.69040110329474   -6.41018821023293   10.93733961218343
O          -9.41675206332626   -5.89308112476702   12.15275657918027
C         -10.34248036642137   -6.43843148394173   12.99547771821172
C         -10.31685673647334   -6.09628323681391   14.35784423240223
N         -10.31209330978878   -5.83496183182641   15.47418686672119
C         -11.20381290945025   -7.29395612205564   12.35009820909887
C         -12.12774959112102   -8.78548131893563    9.50062478250726
C         -12.59587252619304   -9.27067410868617    8.30311570164046
C         -12.51532080435437   -8.75700300427238    6.96284161463124
C         -12.48857526660248   -7.42935436572433    6.60328720224081
C         -12.44239799447776   -6.97240489516035    5.27492853516435
N         -12.36506431638914   -6.54873418585904    4.20950390481670
C         -12.60469152733065   -6.38413037378134    7.53971716884454
N         -12.75744863968349   -5.51276177853951    8.27266529197900
C         -12.77492806508754   -9.86902537496701    6.05224691510521
C         -13.23280919262819  -10.97320465643170    6.81373276232787
C         -13.21090917126439  -10.61441571789906    8.25046615428995
O         -13.57061205835355  -11.29465082944598    9.18695831797470
C         -13.60414370230452  -12.16118684077561    6.23505565043267
C         -13.50563133043690  -12.26813000257346    4.84259476266619
C         -13.03649146167908  -11.16339886372513    4.09488303075655
C         -12.67234677881111   -9.95530685268727    4.67866260213817
S         -12.98314656355387  -11.51865749591153    2.39432437747394
C         -13.58754938294845  -13.12419350926168    2.70703343977901
C         -13.81705804064893  -13.38291743623242    4.01566578962702
Br        -13.85380139088727  -14.30712510696867    1.27516484330007
H          -2.72765968251093   -2.48637745059835    0.68058630298650
H           0.79964029032885   -0.65077345228866    3.73022998645259
H          -0.96859853817206   -4.64313636210778    0.35819726583816
H          -2.88186837586592    3.31023116792465    2.92584157006390
H          -6.92210650349790    4.60297382259216   -0.01249233589512
H          -8.75024659200072    2.83708292925907    0.11789269088414
H          -8.79149225900158    2.05039312588864    1.70160051870298
H          -8.12341814621888    1.19430981944815    0.31015185511112
H          -6.98538834706032    0.23830164225997    2.25192290459755
H          -5.02318916967178    1.26888126954918    4.36235620377807
H          -6.82510954032311   -1.22751433631919    4.21184435410154
H          -4.77350879544874   -0.21522210629802    6.24319366402897
H          -6.67930310327374   -2.63403134653104    6.17394564938595
H          -4.43530932216188   -0.58230114292389    8.43721677616121
H          -3.26795172690206   -1.78851930067505    7.90880739223538
H          -4.09169268068215   -1.98005436879525    9.45520655159445
H          -6.34152623104807   -3.37217628154578    9.34038775427679
H          -4.82822668029246   -4.16216614860158    8.87751233550081
H          -6.16161880910938   -4.69657659032399    6.72419150189268
H          -7.95901747292806   -5.95841150540170    7.31701518425837
H          -7.56902382532832   -4.88998233979893   10.17536900221137
H         -12.01076604263836   -7.83647356167127   12.79804881947815
H         -12.52283577500511   -9.28457376679989   10.38078928341170
H         -13.96023727608310  -12.98420169839955    6.83455930306916
H         -12.31833295456532   -9.13825445369771    4.07167579351327
H         -14.18943246480992  -14.32069058592611    4.38575565104018
