100
 SCF done       -184.837709639731          0.000345967235
C          -9.84191461357821    2.00655258429000    5.94404963967007
C         -11.02390566966923    1.34249177346180    6.15547679063839
C         -11.37884717625879    0.74115555979094    7.37993534030689
N         -11.71720350542241    0.22700058230089    8.34938664184040
C         -12.06784636320273    1.21936537872571    5.21499571288737
N         -12.97647902055777    1.10952772252355    4.52094860961672
C          -8.82632613442350    2.26978065208262    6.95965680392469
C          -7.85485878812018    3.13980699119035    6.40669257647667
C          -6.76857690386361    3.58697781660674    7.11731058488423
C          -6.62827012560982    3.14615568046995    8.43788633357704
C          -7.59891657144360    2.27175600633427    8.97987213440823
C          -8.70286556386342    1.82578768639184    8.26164822977782
S          -7.22731120235483    1.84388233391310   10.62239645921075
C          -5.79304018368303    2.83322322609382   10.55954222060903
C          -5.60051674559242    3.45315371976411    9.37127560434977
Br         -4.68397413100952    2.95446541267598   12.06764855983825
C          -8.21650622221085    3.44035330565367    5.00898831661398
O          -7.61716419723037    4.19586046853528    4.26015972070731
C          -9.40882290278865    2.64426285992478    4.71897489645835
C          -9.93527532241172    2.38290612960124    3.47238252826058
C          -9.61766501913742    2.92787100227485    2.22871546656317
S          -8.66883967585230    4.37418016512645    2.03849162666014
C          -8.96630284221764    4.45252302704761    0.34993979144921
C          -9.74037365743973    3.35758068244906   -0.09489201729799
C         -10.09746063579176    2.47633377272461    0.96767589078483
C         -10.81355713746206    1.29915701800948    0.64724624819538
S         -11.15564793023233    0.04688898052627    1.84456453694629
C         -11.21255862208651    1.09143742945769   -0.65819407681922
C         -10.90275877243016    1.99421478064827   -1.67608674352152
C         -10.15609983173089    3.11133817362043   -1.41192631250878
C          -8.42679395599161    5.48671360787784   -0.45406659013540
C          -7.72468786805373    6.53852657319851    0.03275749079189
C          -7.16424946999155    7.54697762773844   -0.80589099669844
C          -6.51796425383334    8.66226994703042   -0.41748235215154
C          -6.28766324832228    9.09265215283065    0.99125580513011
C          -6.01180532913152    9.61496885331775   -1.47914506735109
N          -7.11622424606652   10.27783476097561   -2.13155484700143
C          -7.17965399963779   11.58206640786710   -2.43422896154091
C          -8.20319591609484   12.14396480205738   -3.13909721895011
C          -8.26472483404652   13.50173061779948   -3.48022719472023
C          -9.25924702726953   14.05572119923520   -4.24873599999235
C          -9.38616756743113   15.39910135858075   -4.66651996479574
C         -10.47042731166344   15.64064149798471   -5.45839185248187
C         -11.26285768484978   14.49929043233073   -5.70579269414035
S         -10.59549424453256   13.10800627407269   -4.89862507714780
C         -12.41454499741650   14.40630240542696   -6.47289956038436
C         -13.05247449100123   15.41491391599277   -7.21632556772989
C         -14.17029254934294   14.98639234459991   -7.87794690890562
C         -14.46755997255629   13.62273164099824   -7.68477860975050
S         -13.28448293438405   12.89343326094154   -6.63077490654508
C         -15.54177949064796   12.92512141277626   -8.21644018601888
C         -15.76356773673164   11.57937842838280   -7.98095861220851
C         -16.80172325459262   10.77804728272283   -8.42424266051454
C         -18.06927992128881   11.08032153662307   -9.01966993183655
C         -18.79661793176198   12.24669541598581   -8.90915089353980
C         -20.04594305142377   12.45589419213267   -9.52092392760596
N         -21.05508254593660   12.69652122803605  -10.01619601295815
C         -18.45224601980314   13.33367175760049   -8.08479809234547
N         -18.26389493605409   14.23327213148346   -7.39446621436845
C         -18.58479362873077    9.84030179842224   -9.60715676488564
C         -17.74294967244502    8.77166006899293   -9.21360403242751
C         -16.61957227650098    9.31573533171423   -8.41802372641425
O         -15.71733252253892    8.68812333207848   -7.89912233875240
C         -17.98657870453380    7.46898678425788   -9.56848155887875
C         -19.11017420417793    7.20730759019799  -10.36170351961068
C         -19.93425488459842    8.28207172096972  -10.76290766705102
C         -19.69229604824913    9.60168531244883  -10.39546002253256
S         -21.26037357878279    7.73802651964458  -11.74755298453775
C         -20.69755138702397    6.09428111385354  -11.60134995757085
C         -19.57499411168421    5.95768943762825  -10.85829808218224
Br        -21.64506254333090    4.71188470435208  -12.44676640328082
H          -6.04731885551237    4.25276255382490    6.66987010823632
H          -9.41333658037690    1.15741466019897    8.71844319390933
H          -4.76831406743147    4.09938923975952    9.15953788629480
H         -10.70914399507311    1.62910177196656    3.45147504650734
H         -11.77277386525304   -0.77528150305071    0.99533939308608
H         -11.77012636499398    0.20002856439543   -0.90693320702653
H         -11.24304037867011    1.78760101112541   -2.67880852098449
H          -9.89065200768209    3.79400693551529   -2.20244712653547
H          -8.59621912583925    5.41558085345413   -1.52032353036772
H          -7.57566236157483    6.60749467375762    1.10025788272612
H          -7.27338905867287    7.36962175778587   -1.87067170835922
H          -5.21861375323413    9.20116504483536    1.17665225528150
H          -6.69333464145239    8.38919621250400    1.70965822547461
H          -6.75043377750506   10.06599752144342    1.15813158881074
H          -5.42787165128358    9.05731251997900   -2.22612757285382
H          -5.36503784886895   10.37491349763209   -1.03738513008046
H          -7.87222706934294    9.68599662177098   -2.44467175305814
H          -6.35195071474440   12.18731377286090   -2.08941392351050
H          -9.01107256757041   11.50987887579040   -3.47972430650581
H          -7.47531932650431   14.15745929646600   -3.13674399146942
H          -8.67068899732343   16.14724762394983   -4.37300880049776
H         -10.71950860937785   16.60326048279257   -5.86678951137543
H         -12.67847296138108   16.42243007703552   -7.25325417770267
H         -14.79332734281257   15.61319369887013   -8.49044298238254
H         -16.20669312212066   13.48545052369090   -8.85620614447186
H         -14.98682165936782   11.03845248624372   -7.44659695726184
H         -17.33301691722778    6.67392246210997   -9.24520333284135
H         -20.35022595208088   10.38661553810493  -10.72929862406687
H         -19.09242060736748    5.01671552145598  -10.66617172959504
