93
 SCF done       -188.243031024066          0.000625755440
C          -6.61571937784803    4.64198013433339   -2.52456014928450
C          -6.99188070822069    5.92515893692322   -2.85505292438556
C          -6.31221740059307    6.69684526494615   -3.80565264507660
N          -5.83681063223200    7.32257518512687   -4.64720866417042
C          -8.16000531641096    6.55753124346080   -2.38574163762612
N          -9.09818944257844    7.11229276099382   -2.02458769241075
C          -5.39744837522742    3.97831726212129   -2.97208138986785
C          -5.46053792059872    2.60529480451931   -2.61415271750439
C          -4.45791945113930    1.71667286561350   -2.91321515072557
C          -3.32551431706387    2.20754659334414   -3.57314492043551
C          -3.24849269075388    3.58778994293434   -3.88614951812480
C          -4.27557535819138    4.48068853109251   -3.60214045269309
S          -1.74515582347051    3.99188024754583   -4.64807794400365
C          -1.25380139321988    2.32529430031918   -4.56245252225274
C          -2.16376302717772    1.50375500051005   -3.98105785429356
Br          0.41203501275908    1.81935222422205   -5.25151299702691
C          -6.71017045078649    2.36643286771683   -1.88084141506968
O          -7.12231031493180    1.31181096547327   -1.41869792014821
C          -7.39113827778884    3.66646554463359   -1.80311933917350
C          -8.62607998781425    3.79765718514640   -1.21932784895320
N          -9.26845934728736    2.74318405715082   -0.70535823969953
C         -10.60702133309251    2.72632468229188   -0.38295647083441
S         -11.15171937237136    1.77664402387404    0.95966114016980
C         -12.75604559613605    2.37192619523755    0.70414018216242
N         -13.77137027629150    1.90741291178668    1.55726860632323
O         -14.89454318342771    2.33370621331941    1.38072050603423
O         -13.44009209255212    1.10638045551897    2.41175350812033
C         -12.85744465733663    3.24306637306347   -0.34915310217863
C         -11.62948319919547    3.44149714398990   -1.00562436742278
C         -11.43651659143010    4.26451323046848   -2.18961963819324
C         -10.65720797894744    3.85327711266820   -3.21078143104489
C         -10.13049433682269    4.60655328449486   -4.29134531399511
S          -8.73947088700364    3.89369312732969   -5.08393471632947
C          -8.35360230247215    5.35314128677589   -5.90984169996232
C          -9.30309743296338    6.34505895542427   -5.66066515305522
C         -10.32000033630823    5.91530051767824   -4.74254104581427
C         -11.35072553451143    6.81427862668237   -4.41254515328435
C         -11.34476551317677    8.08751207453303   -4.92916889482501
C         -12.41469517092724    9.03075842595363   -4.58333031763331
O         -12.50551747291888   10.15876658348600   -4.99509714264638
C         -10.31316645466162    8.51241657477745   -5.80747441716664
C          -9.32007597587445    7.66161732606769   -6.17645299679869
N          -7.22474460972664    5.52089186589495   -6.64943437731894
C          -6.14002121094558    4.67274888931591   -6.76349095524319
C          -6.12465715622115    3.31264346619740   -6.66129689581263
S          -4.56251098599690    2.66374424330921   -6.97614152719329
C          -3.90702241644363    4.22575868700719   -7.23930329471075
C          -4.84274623559132    5.20403000548454   -7.08200111115461
N          -4.61710083994695    6.57923368983739   -7.12342373198904
C          -3.72095724222256    7.19752981993264   -7.91606458025312
C          -3.21648837578421    6.69099574213775   -9.07705792693897
C          -2.32933024904275    7.36260686072665   -9.93451365430817
C          -1.48651123989943    8.42447368114691   -9.71765992256029
C          -0.93081248278513    9.03985259698556   -8.54153984027476
C          -0.72110592444945    8.45556768740015   -7.31188736367298
C          -0.07732761307555    9.08589657991167   -6.23016540834922
N           0.42027030014772    9.54937013847505   -5.30435917930774
C          -1.06295484152015    7.12981732078871   -7.01242062495148
N          -1.31992251824163    6.04622014988145   -6.72570079229053
C          -0.36762585782812   10.32846295844974   -8.94179092897005
C          -0.38318607009703   10.41027476457870  -10.35564927752506
C          -1.01736642116015    9.19038189362488  -10.89858665424707
O          -1.16128395886074    8.89058783058932  -12.06362092556986
C           0.11765281461197   11.49065918613970  -11.03815898704342
C           0.64811415105115   12.54710582053633  -10.28840330485190
C           0.64274950016989   12.46324992252921   -8.87636125207400
C           0.14389178205672   11.36481366309966   -8.18574936863517
S           1.33192563873006   13.88289563165316   -8.14886819489967
C           1.62061206282050   14.55743473590562   -9.73001957693640
C           1.21939930354060   13.76406810581301  -10.75149409289527
Br          2.42048693026553   16.24744874499673   -9.88329084344063
H          -4.53704337191682    0.67714433651312   -2.63686270652774
H          -4.16543749423187    5.52272811912515   -3.85300873567660
H          -2.01945612390748    0.44767418418348   -3.84602094450553
H          -9.12947535163113    4.75275345461828   -1.16425657616815
H          -8.72030375726784    1.87091934501830   -0.68562348322813
H         -13.78799966168089    3.69071284413700   -0.64789387115007
H         -11.89644980612829    5.23835317578619   -2.17240274238225
H         -10.27635831357673    2.83813631501268   -3.17135407124956
H         -12.15856630358124    6.49937352428229   -3.77262086306086
H         -13.16690327264490    8.61397181340457   -3.88431102868897
H         -10.35657296683004    9.52472146876976   -6.17766280569953
H          -8.55183896843361    7.98247946079090   -6.86500334544016
H          -7.06061482549257    6.46785870365225   -6.96599685555349
H          -6.93503292369412    2.64373492120432   -6.46289479055617
H          -2.86374979946930    4.35582793805260   -7.44519207881754
H          -5.00515583248853    7.09583367029865   -6.33198284339878
H          -3.50218199886006    8.21881832003350   -7.63261222819000
H          -3.59046660544221    5.73561964412160   -9.41817572223959
H          -2.34673424986168    7.03731137025504  -10.97094073139255
H           0.10337901159661   11.52216418975416  -12.11626846945879
H           0.15705059730172   11.34832753634752   -7.10846759556726
H           1.32094608469199   14.02479994040321  -11.78911105655926
