97
 SCF done       -185.902108496584          0.000716987631
C          -7.72371957732888   -3.02319000077681   -2.73889998648193
C          -8.20529263974830   -4.05040454093642   -1.96937588024907
C          -7.84074219138773   -5.40233448617791   -2.13243160826274
N          -7.57990610479067   -6.51648777210184   -2.22178383862773
C          -9.12418137649279   -3.87909281924149   -0.91411888280325
N          -9.86906605465783   -3.77877966871179   -0.04630834106003
C          -6.76526231734856   -3.14832613943010   -3.83345506580887
C          -6.50809632865627   -1.86018971969097   -4.37269229956464
C          -5.64590634950954   -1.65531426105304   -5.42314541656555
C          -5.00575877624576   -2.77245922030012   -5.96938365526122
C          -5.26607878771108   -4.05273855528479   -5.42407251384931
C          -6.13810633413232   -4.26012252126756   -4.36122220163527
S          -4.37132011042490   -5.29182885753603   -6.24731303294333
C          -3.66923878787447   -4.09203590864654   -7.30035877372328
C          -4.08248093491437   -2.82659461766251   -7.04854236184103
Br         -2.45815489273120   -4.62139681046704   -8.63035332825721
C          -7.29938327244205   -0.87204811625672   -3.63338670476679
O          -7.33529276938481    0.34376885381510   -3.81013614685064
C          -8.05648031421165   -1.62122450076817   -2.62663211586209
C          -8.92863757293864   -0.99342162731797   -1.77137461535150
N          -9.09151265892879    0.33316734276120   -1.83986155745512
C          -9.92006034065941    1.10073711060882   -1.09002398957580
S         -10.95660342347491    0.40721278574028    0.11771843188731
C         -11.55471286468685    1.99370405937164    0.47690337179543
N         -12.52323285302685    2.12202919048720    1.48305379556335
O         -12.93405820123264    3.24112207062427    1.72656159339987
O         -12.87776519236649    1.09803523935549    2.03763184620066
C         -10.99199470529520    2.98200867058988   -0.28368708101057
C         -10.03959874601582    2.49332039571661   -1.19993286469713
C          -9.26689082490947    3.29263699840175   -2.11369494657321
C          -9.37413421316765    4.62838467619873   -2.24771033699806
C          -8.53567296186164    5.38409678549609   -3.13153107142942
C          -8.53961481016436    6.72081457921752   -3.25793053828067
C          -9.47494653199900    7.62962892464708   -2.52326341811290
C          -7.50810196939186    7.40071410625902   -4.13184906337407
N          -8.07925600429513    8.30489970577049   -5.09708426291071
C          -8.21945118110906    9.62534189789140   -4.88975810806655
C          -8.90896661026142   10.47845406135224   -5.69945574267257
C          -9.00644571368712   11.85114792644145   -5.42883950521684
C          -9.65683853398660   12.77278757427496   -6.21026988894136
C          -9.81275287561732   14.15150401721843   -5.94025280249939
C         -10.49831114810073   14.83596758612262   -6.89840460352763
C         -10.91187906442621   14.03672634795176   -7.98690106303707
S         -10.42436302281440   12.38112052934415   -7.74720662381511
C         -11.59097897209470   14.45367488321443   -9.12170175786075
C         -12.04853346529771   15.75131329637973   -9.41773038298478
C         -12.66460318495318   15.85310831507574  -10.63298366329635
C         -12.71338030766374   14.64473172095500  -11.35737711546186
S         -11.97753727215909   13.35981044123882  -10.43494186111509
C         -13.25731280112080   14.47115070971839  -12.61960670550483
C         -13.21796546501781   13.27980095954492  -13.32514567603729
C         -13.73052901480450   13.02864503085171  -14.58552552235615
C         -14.65813903587960   13.75957738571948  -15.39778347162288
C         -15.64899653738912   14.61688031798506  -14.96971285148287
C         -16.53846673786299   15.28346462084108  -15.83182654128395
N         -17.27507202757645   15.87406254524030  -16.48750022291889
C         -15.97165898769431   14.84690651815040  -13.61907727974097
N         -16.31642813490336   15.03751678524844  -12.53962658792248
C         -14.51726035908557   13.27122899933437  -16.77110806132359
C         -13.66917651923088   12.13669941817242  -16.76007104585729
C         -13.19282943076028   11.90661046220042  -15.37660532180137
O         -12.47450332161191   11.00810969876888  -14.98727797367711
C         -13.36331322315733   11.43349606779008  -17.89785921834792
C         -13.91014637046858   11.87834509577115  -19.10774549092504
C         -14.74509378801152   13.01806047180345  -19.10891534045103
C         -15.06395956381103   13.72489840412623  -17.95424297499095
S         -15.30013939913754   13.40305261373980  -20.71099840318256
C         -14.41616177141507   12.04133535934039  -21.34698724825207
C         -13.73960899933695   11.33520539506346  -20.41159980268360
Br        -14.46693818705571   11.68316557244282  -23.18869592296338
H          -5.47078022283860   -0.66493430161454   -5.81325007522627
H          -6.30382040110058   -5.25472843187223   -3.98243694695175
H          -3.75085931887204   -1.96672776213689   -7.60141075486535
H          -9.50616071379990   -1.52945160811406   -1.02958104101266
H          -8.51002982608674    0.78245577593793   -2.57087555928034
H         -11.26762198760240    4.01316131280833   -0.16442904571929
H          -8.53710719770134    2.77420310199949   -2.72157465270805
H         -10.09049000108850    5.17386653141592   -1.65455916612177
H          -7.82049483954945    4.80711235760302   -3.70430701484355
H         -10.47052934187627    7.20028487449625   -2.45087303427357
H          -9.55624798716752    8.59162983802697   -3.02447740855426
H          -9.10911952476799    7.80774010803521   -1.51133100715349
H          -6.91701915227022    6.64769426970550   -4.66072143670945
H          -6.83236918283103    7.97921966531206   -3.49220839662610
H          -8.60650156177776    7.89133572584021   -5.85247192232592
H          -7.69717347408303   10.01409944059916   -4.02446515179528
H          -9.40811506755173   10.09764065780135   -6.57975444334793
H          -8.53999771088466   12.22202283156922   -4.52464855591476
H          -9.41529604513747   14.59487979286293   -5.04413942436374
H         -10.70858522506152   15.88898528671557   -6.85511236577014
H         -11.91795774218990   16.57410762348176   -8.73817088444093
H         -13.08491259060765   16.76008744174266  -11.02908540372470
H         -13.69404364600287   15.34991691987299  -13.07141692047246
H         -12.63492351043514   12.46680634844561  -12.90228189659434
H         -12.72085147550825   10.56771639312575  -17.86009306922546
H         -15.70212803518547   14.59136834994052  -18.00624849998718
H         -13.14295139650793   10.46805507587165  -20.62886427883090
