99
 SCF done       -180.260238461583          0.000600255155
C          -1.99188637032743   -9.04891501675636   -1.64542136942650
C          -2.89244661337830   -9.50909218330335   -0.71575582801029
C          -3.06630465677077  -10.87047770933573   -0.39045165622458
N          -3.25932160058600  -11.95763650154259   -0.07510422533624
C          -3.78472198541217   -8.72055561559084    0.03803509748157
N          -4.55044474302301   -8.16092606546398    0.68867571219130
C          -1.09892568163284   -9.88934672576736   -2.43764355750436
C          -0.37304096415098   -9.06396007204603   -3.33129796023306
C           0.55516671796183   -9.55951864186801   -4.21299341279494
C           0.78476271449507  -10.93977031731377   -4.20984265874419
C           0.05868946885187  -11.75712352389619   -3.31177627407164
C          -0.88430253686942  -11.25473366397589   -2.42307423858249
S           0.50277565778536  -13.42971030840986   -3.46840281797672
C           1.64234961649716  -13.01365712469380   -4.72049640199860
C           1.68889036267487  -11.69126566958814   -5.00900111708573
Br          2.66331774173171  -14.36360391285985   -5.52841318925299
C          -0.77507359744138   -7.65885812292735   -3.12707709444043
O          -0.35793959469727   -6.69442628579424   -3.74185174311794
C          -1.76175069520980   -7.67460229849142   -2.04232074245872
C          -2.34615782715243   -6.58139752377606   -1.45236558206786
C          -2.20217093513131   -5.21178147369512   -1.69619793670995
S          -1.15815396147561   -4.48823025893157   -2.89304936391255
C          -1.57621440335989   -2.93243753457670   -2.33337541925484
C          -2.45081365217234   -2.91530574838668   -1.27932333515337
C          -2.96004194739380   -1.65008706462701   -0.67131696355765
C          -2.83623093979267   -4.22424241397214   -0.90657034975867
C          -3.78763626833163   -4.55973495723734    0.11881689016530
C          -3.94575940827768   -3.92414309454296    1.29865350286612
C          -4.89039831927771   -4.36137688519141    2.27330782336777
C          -4.94669877023008   -3.87932396162538    3.53311217942152
C          -5.87289455669594   -4.37254663461389    4.50613252542936
C          -5.89487283674979   -4.10229561813793    5.82237885135653
C          -4.91403711222686   -3.24713737002991    6.55437553794524
C          -6.90321420257434   -4.80999680425727    6.70212382948278
N          -6.43466532336388   -6.13830714176893    7.04340472891470
C          -5.51642054433355   -6.34814261549459    8.01206540740597
C          -4.78675438875300   -7.48415338871886    8.12520717925127
C          -3.83968818934957   -7.74424118525766    9.14684676662091
S          -3.10579104542720   -9.30823341347967    9.25404072836989
C          -2.10365080467882   -8.83774963932774   10.61099818351352
C          -2.38735921969590   -7.51478886986744   10.97194243971086
C          -3.33543191974332   -6.90245229541243   10.13784567576485
O          -3.74091429500392   -5.59497455638262   10.20366273509967
C          -2.86530801036531   -4.73653541697656   10.90186403716905
C          -2.66344296073978   -5.19047690581789   12.33616978416849
S          -1.67386314094643   -6.72206628226898   12.35867091101666
C          -1.16124772510883   -9.75608102777041   11.08459872236265
C          -0.20248827698798   -9.52465353732889   12.03556228808839
C           0.75433430190834  -10.48304137762743   12.37853187062930
C           1.83451706632240  -10.32046330503858   13.21404582035375
C           2.42537214931297   -9.14606724277966   13.79689712014275
C           2.39056208757912   -7.85780954576622   13.31316429363796
C           3.00846129219775   -6.76308362800665   13.94757609258827
N           3.46460596764812   -5.82252044818452   14.42553065614289
C           1.84016454112712   -7.45910170230446   12.07994319490955
N           1.46908584663541   -7.04894946517275   11.07247526271041
C           3.27633010326112   -9.59043292322818   14.90254522198652
C           3.36430179785124  -11.00388615350585   14.86626663094859
C           2.50844411085527  -11.51155649451873   13.77094630881223
O           2.36028831976494  -12.66583783862789   13.42872368214225
C           4.12780271132544  -11.72037664470199   15.75350491467272
C           4.83105725098134  -11.00936882859233   16.73280235988316
C           4.72532006399076   -9.60058665084875   16.76989271929232
C           3.95882026394792   -8.87394795408604   15.86564306778469
S           5.66561534425989   -8.92304722042652   18.06596199788299
C           6.18373475010208  -10.52194560803271   18.52972904772773
C           5.67941749771619  -11.51260075926713   17.75797826555833
Br          7.34182511793195  -10.73152212401737   19.99147436360026
H           1.09037727246284   -8.90360288502589   -4.88149927108620
H          -1.40849633954271  -11.91991801533845   -1.75764914865447
H           2.33432311687396  -11.26162095877760   -5.75315568414857
H          -3.01482547336735   -6.80196616379118   -0.63144651464809
H          -1.15490503189263   -2.06993647294738   -2.81461886903151
H          -2.88803881240524   -0.83665233246882   -1.38938235498133
H          -2.36791439726640   -1.37858488761266    0.20251606182762
H          -3.99680885338140   -1.76398518754733   -0.36222446394737
H          -4.40548389762567   -5.43073949131617   -0.06179275128753
H          -3.30411583434789   -3.09852812501157    1.57044097360677
H          -5.56190578468591   -5.15678577744985    1.97686062829811
H          -4.25118717044142   -3.10657458807014    3.82922999861859
H          -6.62213663492201   -5.05233538308615    4.11604871400980
H          -4.20639209328831   -2.76702747438480    5.88744564653286
H          -4.35538895705334   -3.85862873367500    7.26494358936201
H          -5.43829963881933   -2.47721824577276    7.12100239135048
H          -7.86167810626947   -4.91370178378006    6.18695089996514
H          -7.05924901707944   -4.25597091870558    7.63025787117704
H          -6.43688008682627   -6.80508334993589    6.28315213717283
H          -5.42778496421239   -5.56684784325330    8.75099059216399
H          -4.91743194503574   -8.27307553333802    7.39699760492663
H          -3.34554089864585   -3.75478358520652   10.87346469088833
H          -1.89489608480795   -4.68109766311531   10.38999475334050
H          -2.09875292478942   -4.45867550820697   12.90932135570363
H          -3.62221927937678   -5.38541146947607   12.81760714382253
H          -1.16709137208261  -10.72000022720209   10.59041310750009
H          -0.17442397095444   -8.56913816006189   12.53263030778377
H           0.61277491344664  -11.49300636063829   12.00763474556631
H           4.18242639375582  -12.79617148669170   15.69590759930818
H           3.90759128352335   -7.80032978798080   15.93774093294830
H           5.89427174891689  -12.55564230551769   17.90282612162873
