110
 SCF done       -194.987874563205          0.000496538451
C          -2.29702611322292   -0.78360422192397   -1.67773253809366
C          -2.00303431180566   -1.81306601091086   -0.81668793221223
C          -0.90260881065690   -2.67908368890995   -0.96331531095567
N          -0.02194427072365   -3.41296678490740   -1.03551241070251
C          -2.76257340746395   -2.12293859658519    0.32802758055973
N          -3.34819957801305   -2.40788364936836    1.27415658793334
C          -1.52419715520401   -0.41458518057979   -2.86260412519070
C          -2.12987313399044    0.71465186356335   -3.47229143008998
C          -1.63601632962113    1.29486126110865   -4.61465615246257
C          -0.48923592296380    0.73333311097560   -5.18784885510107
C           0.10818606254698   -0.39125844443898   -4.57349007831344
C          -0.39084381342148   -0.97723127631460   -3.41456648760822
S           1.51077476271551   -0.92673978719994   -5.44718036209012
C           1.27716360556732    0.34958934727023   -6.61205158262218
C           0.20569131052796    1.13831867019504   -6.36017685323276
Br          2.47043739826865    0.52214487968435   -8.04946129005229
C          -3.31407733504603    1.09252514806891   -2.69059506185836
O          -4.08711768443563    2.02364598737336   -2.91167381669526
C          -3.40320373613229    0.13445865699467   -1.59043446894533
C          -4.44580300891959    0.17083049723146   -0.68852108634609
N          -5.39060457939165    1.10919862835651   -0.80597300673385
C          -6.51105723281445    1.25452189649414   -0.06435925493313
S          -6.89547553351791    0.16374249954682    1.23079490052518
C          -8.37882498215285    1.03648030538618    1.47952042108043
N          -9.19076319333882    0.60036990412632    2.52593479857966
O         -10.20159514887433    1.23795215854085    2.77909221863007
O          -8.82341026912215   -0.38869921188784    3.13873811263785
C          -8.56678533584750    2.08363205362626    0.61737565131892
C          -7.49272900259538    2.24235854453811   -0.28505433244896
C          -7.37483323498963    3.24490772521501   -1.29121780646531
C          -8.38905782714677    4.03629279719352   -1.74496665594721
C          -8.21078429289682    4.96500933713416   -2.78183183757975
C          -9.23323499528247    5.62038391870347   -3.42896713781683
C          -9.12133309891270    6.49966779150333   -4.53232965958518
C         -10.31720405922626    6.89812141640087   -5.05742964007037
C         -11.43602136806605    6.35769614512135   -4.39558292440950
S         -10.92397654895481    5.36553117288019   -3.04485865122138
C         -12.78055991138454    6.44474816775883   -4.71765564568750
C         -13.41658994159584    7.05738356528652   -5.81621968959823
C         -14.76006483975594    6.81715306582436   -5.87433232505022
C         -15.25882873817842    6.00753316145381   -4.82651364486200
S         -13.95166533588914    5.60724555057010   -3.72957737384593
C         -16.53917166994663    5.51635503403936   -4.69075576930675
C         -16.99114599565669    4.67456493925117   -3.66728812979478
S         -15.99754537731249    4.32529762821466   -2.27799102352377
C         -17.19096810282021    3.25030276536082   -1.61052094413927
C         -18.30996602111158    3.18380972489863   -2.43907017788450
C         -18.20597628492436    3.98218977610218   -3.57815217489354
C         -19.29422049562670    4.06144280563531   -4.60196363730486
C         -20.25464993527223    2.88569488259086   -4.45595418554415
C         -20.70520274885962    2.73689849726280   -3.00347576449310
O         -21.73479645648400    1.76844357586011   -2.98207767553101
C         -22.44588983115180    1.68402222949728   -1.77399770554288
C         -19.50525377997122    2.33666039360195   -2.13325596289865
C         -16.90311175725289    2.57575924156037   -0.39953190621512
C         -15.81950687958528    2.91393534797078    0.34673072325581
C         -15.33081051491621    2.28876002441413    1.51296241261394
S         -15.90629632568895    0.74784750928580    2.08646139944489
C         -14.74150408982121    0.74325715766688    3.38039722470113
C         -13.97594041096925    1.89473968229610    3.36695254263644
C         -14.30120580025469    2.76383593610280    2.31535561933041
C         -13.64556255307904    4.09050226779249    2.09118307384555
C         -12.62475454452660    4.47388447186357    3.17078114743177
C         -11.19919743633634    4.25176956234574    2.68458890870637
O         -10.88215392454843    4.02181711721792    1.54566916860444
O         -10.32771634172911    4.46192007350015    3.67176840207301
C          -8.94438278109433    4.37148919436448    3.37018042580301
C         -12.88852412732981    3.77857240657670    4.50884531662254
C         -12.90736602660219    2.26076865036239    4.34292548712912
C         -14.64638304352543   -0.36146767877368    4.28907280535567
C         -15.42512611698725   -1.44183438481657    4.25870288649912
H          -2.11900497518694    2.15231773773947   -5.05642251893793
H           0.09985686229997   -1.83507753773313   -2.98630321159085
H          -0.08436516686042    1.97078934395636   -6.97497212327599
H          -4.54630408748512   -0.54430725306488    0.11696060243643
H          -5.23409362624434    1.75414431988297   -1.60314504959901
H          -9.43757859346324    2.71606314979960    0.66051197616248
H          -6.40720359716430    3.35686074809593   -1.76322821651911
H          -9.38501055057973    3.92752633513738   -1.33738716753693
H          -7.20594705265245    5.13939474632696   -3.14468478100574
H          -8.16082220714784    6.79492950085452   -4.91662288544828
H         -10.42003519510902    7.55077583900294   -5.90620380345491
H         -12.87298031215213    7.63389948112559   -6.54336817358250
H         -15.40663682758323    7.18520103797953   -6.65194930853684
H         -17.24689756267107    5.77379928858190   -5.46742036674483
H         -18.86711869716834    4.06605578052081   -5.60692639830155
H         -19.83959687907863    5.00266697226390   -4.47186074115576
H         -19.76648701565280    1.95949664534253   -4.76204674614926
H         -21.13180173912541    3.02826400389649   -5.08719559267978
H         -21.10467117896545    3.70224794162284   -2.64460472268434
H         -23.28639643443585    1.01841656149217   -1.96206720136601
H         -22.82315016512731    2.66745251851817   -1.46602085525031
H         -21.83649007560195    1.26918796530746   -0.96347333562055
H         -19.27247272844563    1.28553189979119   -2.33415852220227
H         -19.75437152592939    2.42578931351638   -1.07343551331539
H         -17.55880115711795    1.77545084191483   -0.08701799838454
H         -15.23061812226765    3.75918900809835    0.01168695814476
H         -14.42383547215183    4.85631714690383    2.03637772750855
H         -13.12992164560722    4.07686630152153    1.12534509661640
H         -12.68098552343734    5.55761991986791    3.33587675647180
H          -8.43053288591424    5.04955887706899    4.04882399551552
H          -8.76100932044068    4.65454871292419    2.33155487754887
H          -8.59928920952753    3.35001345870562    3.53586885636338
H         -13.85720607821199    4.11224565999904    4.88976997422559
H         -12.11944842069021    4.06674961288258    5.22495592211483
H         -13.08049734273740    1.78415473247983    5.30842252692585
H         -11.94245708747421    1.91849269199851    3.96053100995196
H         -13.86395241613856   -0.28047975755041    5.03137759330672
H         -16.20565379412770   -1.55169318322464    3.52370215418353
H         -15.30300187616420   -2.24527156955628    4.96268587716311
