97
 SCF done       -177.450589598046          0.003533920276
C          -8.11549813890337   -0.48236468372389    3.28786477915282
C          -7.46969896083145   -1.57167489921155    2.75549359435632
C          -8.05572200194050   -2.84014335719233    2.59395619300980
N          -8.46627390558173   -3.90644225006993    2.46822939515179
C          -6.09926724682333   -1.58422625728545    2.43128053913704
N          -4.98099818353424   -1.67685310779833    2.18240356559972
C          -9.49378736018156   -0.45024316398047    3.75420429969232
C          -9.69455293245328    0.75469013576226    4.46995394105373
C         -10.90704979426621    1.09655863084679    5.01281610222250
C         -11.95817020796727    0.18356978353524    4.88720437621208
C         -11.74441484835562   -1.02547376931106    4.18464772369289
C         -10.52660027534609   -1.35538183405073    3.60094621443405
S         -13.18119762258099   -2.00359806955537    4.16046787598736
C         -14.02723533954057   -0.79441660688593    5.09621783786246
C         -13.27908796381704    0.29063865349778    5.40183294396809
Br        -15.81501811453178   -1.09118650610788    5.57052387805403
C          -8.42551694891274    1.50232757966364    4.54538167830183
O          -8.22509825715978    2.52929509293138    5.15632003201173
C          -7.48631968969010    0.75598469214133    3.66941708903815
C          -6.28836970975395    1.26356408362545    3.24607596945526
C          -5.58832129119206    2.28628849210191    3.93924229138089
S          -4.80113917316191    3.59243502151491    3.09975449861214
C          -4.35581887306255    4.31386361557620    4.59094685889877
C          -4.73718913767085    3.59187806140810    5.68261930485108
C          -4.44762705026499    3.97588908353804    7.09295162070118
C          -5.42838653024373    2.40641375606585    5.31828051847178
C          -5.84489321488033    1.35178435605761    6.21443752595893
C          -5.69548438488192    0.05660816634181    5.87714241122333
C          -6.30241019034579   -1.06273925535066    6.51958134782025
C          -6.22283275640612   -2.29453966981876    5.97230873545380
C          -6.90713833043231   -3.44462569580403    6.47591560805319
C          -6.86540485296603   -4.68882359110602    5.96937580520909
C          -6.11267392117365   -5.10924136288230    4.74972874134614
C          -7.62107129413699   -5.81358369841431    6.64722942137345
N          -6.76132427071176   -6.93058346494965    6.99909275884044
C          -5.69389273067764   -6.83136273760375    7.80526461349501
C          -5.33505589526859   -5.68768311790086    8.46169289985452
C          -4.16696608589885   -5.51087872835687    9.20773961857337
C          -3.80927780301102   -4.27644674241167    9.70467312417883
C          -2.63626836850108   -3.89684597969115   10.38727309658628
C          -2.55878280812417   -2.56090993451796   10.66941611823243
C          -3.67756323004804   -1.82401483857652   10.23281515027656
S          -4.83260065387954   -2.86424995239996    9.45942122521064
C          -3.92960047668305   -0.46113773865591   10.34509928298665
C          -3.11847904001813    0.55472641820533   10.87034316727636
C          -3.68981651525592    1.80014115203097   10.80911453845690
C          -4.97961710796210    1.81416425162388   10.24771058153881
S          -5.44495249737137    0.20250813669844    9.77224505621766
C          -5.80947781007910    2.91699497950875   10.07951523285656
C          -7.08769046341971    2.82774705845905    9.56231815121152
C          -7.96542344591192    3.89487604372768    9.40752686912414
C          -9.31161293818965    3.82633053388012    8.92813275201349
C          -9.95294073675749    2.74193317677045    8.36397343856942
C         -11.30217592552687    2.74056149782484    7.97505854882076
N         -12.39769576909642    2.64802341783297    7.63344712092439
C          -9.36317146890882    1.50022514576865    8.06806025125266
N          -8.96879222021558    0.45910505109339    7.77588137685643
C          -9.91711298109074    5.14900712358053    9.11519921742923
C          -8.94351028747629    6.01808576568113    9.63606222769894
C          -7.66990174444261    5.27702919663420    9.81140073454083
O          -6.61839570539404    5.74400446226692   10.20831511617960
C          -9.22278225502992    7.33625256160289    9.92126051967494
C         -10.51055692844727    7.80326431871341    9.68173522556714
C         -11.48253745847990    6.94894680521537    9.16033238866886
C         -11.19528738146012    5.61746049688685    8.87224450590615
Cl        -13.07250905051612    7.53787430958996    8.86593199660715
Cl        -10.90207978466315    9.44069463118034   10.03494111783500
H         -11.04780617491325    2.03303277471401    5.52600233413413
H         -10.41321414480328   -2.27817287840925    3.05561824272823
H         -13.62263340978771    1.12792886159551    5.98275217651348
H          -5.85690048401371    0.91378454370407    2.31486073067553
H          -3.82544062091617    5.24629129643911    4.57984441567320
H          -3.78748625994320    4.83800700672542    7.12988886436732
H          -3.98117741390493    3.14588354437852    7.62197035181930
H          -5.37339762566207    4.22421160199428    7.61045198111659
H          -6.31866342794918    1.63980585407984    7.14124160301932
H          -5.12836325731773   -0.17464220586425    4.98053102037353
H          -6.90885903194535   -0.88126606026380    7.39488825824181
H          -5.60786492832860   -2.42033379836024    5.09081418012953
H          -7.51303776827214   -3.26115381036141    7.35501818295509
H          -6.79884824972729   -5.54285591627443    4.02348442368234
H          -5.36765503835513   -5.86366303654684    5.00268883545624
H          -5.60090566145514   -4.27997561986605    4.27513310388564
H          -8.38766727922471   -6.19690121500773    5.96923263106149
H          -8.11617678306179   -5.44001593139606    7.54978046159641
H          -6.91488125820365   -7.80163280394939    6.51826687543995
H          -5.09717883594755   -7.72909479164719    7.90511582593502
H          -5.95950571694152   -4.81650048473638    8.35079064075421
H          -3.49453165535222   -6.34347538546179    9.36536652578347
H          -1.87576049542117   -4.61386613618611   10.64300804921358
H          -1.73275357508584   -2.09573826973661   11.17637508492720
H          -2.14010723470921    0.35778350094868   11.27327184679563
H          -3.21779701542740    2.70260980689476   11.15732303870116
H          -5.43018968435960    3.88005772188118   10.38552987507588
H          -7.44341275382790    1.84007598718760    9.29122736061175
H          -8.46211814615594    7.98616809874909   10.32344905184537
H         -11.97515572733495    4.98925301858059    8.47373328593624
