97
 SCF done       -190.411795818363          0.000316828724
C         -14.12139558267107  -12.51426499179394   -4.62211021649479
C         -14.37073138858413  -12.03605749001484   -3.35442083257951
C         -15.11016023310601  -12.73268300607613   -2.37922973417287
N         -15.70452426024879  -13.24393535469895   -1.53910072894429
C         -13.93091296530194  -10.80235492916745   -2.83703177306128
N         -13.61501500546925   -9.81990412050475   -2.33004833859604
C         -14.57504030047697  -13.80700255474049   -5.13449006936981
C         -14.10469484456277  -13.95763462822003   -6.46139949419029
C         -14.37209087903362  -15.06822428751265   -7.22211521928352
C         -15.14580972209740  -16.08267639846603   -6.64659667721057
C         -15.61072003380649  -15.92443052355561   -5.32106395524892
C         -15.33702120067053  -14.79988129212297   -4.55022651212308
S         -16.55132504856615  -17.29253956637952   -4.80618968891778
C         -16.31070161711689  -18.04654134619191   -6.35984797394008
C         -15.56433403296523  -17.31489124210371   -7.22017499839246
Br        -17.06930628872245  -19.72866001202957   -6.69987452591439
C         -13.33295422476744  -12.75549988359180   -6.84269127837161
O         -12.78586990548622  -12.56465230273444   -7.91223781825397
C         -13.38240247328088  -11.86264326790058   -5.66963289571136
C         -12.83726637576425  -10.59136682112350   -5.62884661897469
C         -12.15394380600895   -9.98732710260270   -6.67466092140290
C         -11.68922975599399   -8.68271961682862   -6.62329554704521
C         -11.03864560376522   -7.98163989354132   -7.65723759538645
C         -10.74770553426557   -6.67957926177963   -7.35065179139383
C         -11.14860510583754   -6.30421164873533   -6.05699563219076
S         -11.89329526449417   -7.64707195477354   -5.22800435639707
C         -11.04587731554746   -5.04848148271785   -5.46269685075245
C         -10.57914478814441   -3.85551925894859   -6.03830452230715
C         -10.68986987540781   -2.77087065663361   -5.21086500774930
C         -11.22155747688671   -3.06402844069427   -3.93943155707717
S         -11.58504093905824   -4.76968523087443   -3.82784752980629
C         -11.49741662659366   -2.10910337359362   -2.97238422360708
C         -11.92368692489364   -2.25331535783110   -1.66105627866573
S         -12.49418913004230   -0.80130103672700   -0.83102144222618
C         -11.97736941511290   -3.32360310630602   -0.75621530281082
S         -11.54710960435695   -4.99762790193510   -0.78137362333723
C         -12.02237173721987   -5.07916120605565    0.90278368625171
N         -12.44608829578918   -3.99554616046539    1.43269278491519
C         -12.42926759492916   -2.97898341201017    0.53730337618324
C         -12.79501640632653   -1.62578539556918    0.68104079138635
C         -13.34390356750808   -0.96940591179301    1.77170833999202
C         -13.49431329901587   -1.54011735352880    3.02479350059528
C         -14.13524218910529   -0.89325156845359    4.06553056884853
C         -14.22045099044238   -1.36472706082795    5.36961872002517
C         -14.96131206676630   -0.79210485341846    6.41773197131571
C         -14.83373499000510   -1.44665073233362    7.61430193313980
C         -13.95901591724017   -2.54511855069087    7.56271589704230
S         -13.34485334965709   -2.76464926423485    5.94562577411478
C         -13.54783056987577   -3.34085684370659    8.63110539149157
C         -14.02824363850305   -3.30678993996035    9.95173814937716
C         -13.37511965225194   -4.16305177986193   10.79570878398925
C         -12.34135564923942   -4.89491128721589   10.17992097077966
S         -12.25038662659718   -4.49811609577361    8.48114950048607
C         -11.45050750424084   -5.74289590857133   10.81727595059088
C         -10.39828340045152   -6.38774713837649   10.18340579545969
C          -9.37748483101573   -7.10711044018026   10.77371065770903
C          -8.92584234867529   -7.18054347100131   12.13371094216627
C          -9.08447469134506   -6.22896531600769   13.11802597488364
C          -8.58770338437454   -6.36322190198023   14.42829533801724
N          -8.22912132486971   -6.42525919433101   15.51819450593377
C          -9.65227618561061   -4.95630085044904   12.91706873314761
N         -10.05587284591050   -3.88576900645144   12.80950466586131
C          -8.05024146554114   -8.34864255653582   12.24210346863226
C          -7.81535055408561   -8.85903919341010   10.94103067909834
C          -8.59490426340196   -8.06661592778002    9.96506610549538
O          -8.61767817373485   -8.19459623039834    8.75943941827531
C          -6.98759576330912   -9.92834895952059   10.70607779043204
C          -6.36976204544265  -10.53081625379979   11.80841906042319
C          -6.62384477692178  -10.02417340740716   13.10354579715212
C          -7.45625503419625   -8.93574407231591   13.34114823620997
S          -5.76682785181280  -10.92069108847597   14.32078086735187
C          -5.08323283374568  -11.94694804074102   13.08787343989092
C          -5.47713574236107  -11.63792115525671   11.83019281569386
Br         -3.91382074675261  -13.32944030295389   13.57885576642176
H         -13.99955816021690  -15.15217778220282   -8.23104294601964
H         -15.71710940903638  -14.72827324871128   -3.54506251890481
H         -15.31876870914613  -17.62828227596511   -8.21846016261784
H         -12.96639210433902  -10.00687659261298   -4.72609051335761
H         -11.99306647660960  -10.54304579730082   -7.58726551058521
H         -10.81366234547967   -8.45105664292290   -8.59815328433932
H         -10.26011078657968   -5.99566601654497   -8.02163263835432
H         -10.19228581842519   -3.81303447338221   -7.03999798522057
H         -10.39901448878428   -1.77128735014665   -5.48138134299839
H         -11.39123640097794   -1.08319430815608   -3.30517680297267
H         -11.94820204834356   -6.00811410194833    1.43283398062792
H         -13.65834445619905    0.05538299185619    1.62202404970713
H         -13.09451158539012   -2.53193943537680    3.18705277809106
H         -14.62013459584649    0.05466864817360    3.86602199896639
H         -15.57118109382083    0.08117640181387    6.26777202575001
H         -15.32451831444355   -1.14510771549905    8.52152941052396
H         -14.83703182685491   -2.66578125519286   10.25214817614881
H         -13.59011312888604   -4.26741873067433   11.84387558944828
H         -11.60463274746460   -5.88485680133893   11.87736917040796
H         -10.39002176023209   -6.39116760187171    9.09733155959162
H          -6.81827807717581  -10.28948435352820    9.70383973334867
H          -7.62029740166742   -8.58755513879956   14.34734840166366
H          -5.15291240627978  -12.16662124338973   10.95248221418357
