118
 SCF done       -218.203116553751          0.000170773460
C          -4.83893534712967   -1.94582519965936   -2.30661997144508
C          -5.78179990718785   -2.76787319650142   -2.86497778409115
C          -5.60131550962913   -4.15174563953082   -3.07144555570697
N          -5.51850797979320   -5.28191945734582   -3.25446051949306
C          -7.04597110141303   -2.35318970754968   -3.33569000467496
N          -8.08326615511466   -2.09573092700399   -3.75597629357294
C          -3.49721448462168   -2.34165770765359   -1.90551464911374
C          -2.78658648940860   -1.18561210220816   -1.50465513041379
C          -1.48433656650853   -1.22897565188122   -1.06926175948521
C          -0.84981253123382   -2.47371940454621   -1.03526341710218
C          -1.56771163359257   -3.62511605095745   -1.43920663932881
C          -2.88585144304185   -3.58185569457292   -1.87370104614036
S          -0.59456566290393   -5.05920070267895   -1.31795850460377
C           0.74502582648671   -4.10592372461073   -0.73764469290763
C           0.47966221210003   -2.78190737237979   -0.63746390243169
Br          2.36562793952862   -4.94911463505176   -0.31530508348474
C          -3.64431123707770    0.00641121781667   -1.65137969658452
O          -3.31639913988660    1.14637615652331   -1.40301707013260
C          -4.96889857129482   -0.51212135744809   -2.08931582145862
C          -6.14938856465876    0.16437849460553   -2.06522995666725
C          -6.35152801664639    1.57995446122332   -1.93868746074873
C          -7.51896274808061    2.04029953498740   -1.29968990658049
C          -7.71042894686730    3.38824651525165   -1.13801845617207
C          -6.75608583754044    4.30289717068973   -1.62351036652403
C          -5.63742489920148    3.86193995785065   -2.31736637832116
C          -5.44734174019755    2.50696375172359   -2.47622599606549
C          -7.19688279737616    5.63797146727104   -1.30651217811861
C          -8.44102663927995    5.56457486341653   -0.65319742745419
C          -8.85946431682746    4.12106034832279   -0.48147716508418
C         -10.19124242751715    3.82858170530214   -1.19708008403995
C         -10.15570210200808    4.17925590126900   -2.67974190174935
C          -8.98001437189215    3.75027676260583    1.00884720403739
C          -7.69304082064533    3.99787083259578    1.78679561759268
C          -9.09196930949298    6.71090475879444   -0.26886981754480
C          -8.51040493767980    7.96716960548595   -0.52819824588647
C          -7.24291137020158    8.00910469958552   -1.13887563009186
C          -6.58844616246847    6.86504758484977   -1.53172032568549
C          -9.21185624116358    9.16731770621034   -0.15931884456150
C          -8.82328490843278   10.40906613874175   -0.55172457735615
C          -9.38844760670928   11.65227331317629   -0.21757119568576
C          -8.79892062096276   12.81642775420564   -0.65445415041060
C          -9.12964515106710   14.16725887806704   -0.39262384843788
C          -8.26281356980860   15.07623616484709   -0.93208470285290
C          -7.20271462355262   14.49387325945838   -1.65753759264380
S          -7.35311342807623   12.75838997896536   -1.65586265115288
C          -6.09983983708172   15.04088094294703   -2.29441902939071
C          -5.63811067137720   16.36519827408321   -2.40712352516974
C          -4.43520351752381   16.45728185384133   -3.04706962758696
C          -3.88412068306655   15.21638847027759   -3.46584133881429
S          -4.99563988872118   13.93293506497683   -3.08268500192009
C          -2.61580789626151   15.06759203992207   -3.98771082548972
C          -1.91293750879316   13.88534496206582   -4.28919536231398
C          -0.52151309277736   13.91145022529015   -4.51856333114754
F           0.09636775736499   15.10880947146875   -4.55564060947017
C           0.26541465647139   12.77778909490480   -4.65254976334734
F           1.58727103947659   12.95386704469024   -4.80701269124817
C          -0.22732815564227   11.46355985032949   -4.56353817258603
C          -1.64163392463665   11.40472000639587   -4.47415919777995
C          -2.44915101639893   12.57175810435733   -4.34535865957164
N          -3.71921346173060   12.16463315708828   -4.31081955896811
N          -3.66581378003589   10.86740804228831   -4.40462831546940
N          -2.46777234840773   10.35150535150449   -4.50880845677270
C          -4.84334002344077   10.05891490734717   -4.34328922962700
C           0.64249923305333   10.34636613616738   -4.61366528612478
C           0.41442174145933    9.05185544048587   -4.22993758607508
C          -0.62853248023585    8.44760541328503   -3.44725276023043
C          -1.40044614688823    9.06564800459752   -2.48935651071754
C          -2.53371169730917    8.48391457448823   -1.90292180403511
N          -3.53076241993970    8.09918832864987   -1.47646470269489
C          -1.14493536761956   10.35918214906779   -1.99665980246504
N          -0.95622898183161   11.39058471856452   -1.52791710672788
C          -0.60105609317153    7.01179855651708   -3.69918172786028
C           0.55102686475758    6.70907182152259   -4.46734617043354
C           1.27191302510573    7.96627238424736   -4.77398590739397
O           2.31370848455799    8.08708522927631   -5.37704775911052
C           0.87810330967354    5.42498118028934   -4.82643031637171
C           0.02526815564768    4.39271776767590   -4.41537990519737
C          -1.12017230969410    4.70474006619999   -3.64654572650797
C          -1.44561956509536    6.00439819898724   -3.27595928354664
S          -2.03214793280801    3.28219725596076   -3.23916981873077
C          -0.88505396559201    2.30231141768601   -4.10735793715835
C           0.13469848539297    2.99716867709038   -4.66558592500450
Br         -1.14623955469532    0.44491905919403   -4.21674670535421
H          -0.96970088433247   -0.32952288515052   -0.76994711820407
H          -3.39156386470559   -4.48713319609215   -2.16512310379195
H           1.19087293806043   -2.05136519470358   -0.29779784044291
H          -7.06046640127869   -0.42259025551626   -2.09719967113947
H          -8.23352063823374    1.32312202180059   -0.92168330088277
H          -4.93076629501151    4.56625548728609   -2.72877955809593
H          -4.61048807266093    2.14867842555045   -3.05040793356609
H         -10.98299177800415    4.40001219032551   -0.70803555035065
H         -10.42528034240690    2.76845194709698   -1.08156546773489
H          -9.94254786097443    5.23682066866655   -2.82051933439611
H         -11.11620646660649    3.95737197050570   -3.13854977599942
H          -9.38901015371494    3.60327547459511   -3.19308020963075
H          -9.25316639297278    2.69567749228888    1.08498941441264
H          -9.78892097931045    4.33662805490457    1.44984264293020
H          -6.87577995868808    3.40697307068278    1.37918926332907
H          -7.82899743186232    3.72247720128224    2.83005083729856
H          -7.41110514741490    5.04745310670437    1.74189333463343
H         -10.05361143788586    6.66533994609057    0.22276094342420
H          -6.74777050549088    8.95499188548565   -1.28618348281643
H          -5.61026304728152    6.92487270646801   -1.98121526554126
H         -10.09805282737554    9.05086712340209    0.45162267997238
H          -7.95664460927264   10.48162004708053   -1.19499428189751
H         -10.26703481024800   11.70692708635914    0.40954062238803
H          -9.98931521965211   14.42988126180026    0.19893018087108
H          -8.35511938701007   16.14213097396823   -0.82037129075300
H          -6.17915271717921   17.20479291773980   -2.00750163624825
H          -3.90786713465459   17.38104232960615   -3.20976078191290
H          -2.04747962593415   15.98375391232128   -4.09233746728978
H          -5.70038401124425   10.72561707284363   -4.28594435509903
H          -4.80584723819794    9.42157456853699   -3.45775014207251
H          -4.90772717600411    9.42684175353263   -5.22900864279405
H           1.61292462211705   10.52273159409337   -5.06791419305593
H           1.76527931534524    5.21883603093156   -5.40449562474829
H          -2.32566450058202    6.19731738269579   -2.68513996255914
H           0.92855954564583    2.54740212974704   -5.23361490756375
