98
 SCF done       -207.672475125193          0.000692706250
C          -5.74918519065343   -2.71435531730391    2.04736782833208
C          -6.55618941553017   -3.81520766107364    1.92099641295036
C          -6.15928230778420   -5.12644721145884    2.25329714862495
N          -5.88531710810718   -6.21012362429636    2.51529800043895
C          -7.86429949827099   -3.78371382436155    1.39247612953962
N          -8.91686404427737   -3.83954187355873    0.93775766858126
C          -4.35121649092318   -2.71393381393169    2.45752564195746
C          -3.83142229648299   -1.40665063550460    2.29038922757835
C          -2.53195896580579   -1.08473992064855    2.59780245310811
C          -1.70541953029981   -2.10087137980708    3.08933580734684
C          -2.23473645827244   -3.40311921774793    3.25347749793095
C          -3.54971748193354   -3.72909163780185    2.94471645982964
S          -1.04573711333680   -4.50179492254979    3.88418432226366
C           0.13032256510034   -3.21506627947138    3.91830068790729
C          -0.34030670816568   -2.02359095367458    3.47931447532806
Br          1.86807086234061   -3.56513977902585    4.53041990458398
C          -4.89491688377464   -0.50862215081092    1.79500167371686
O          -4.80309362656686    0.69017831306621    1.63509632221491
C          -6.10672800848618   -1.35880118661941    1.68616552082461
C          -7.37244958019968   -0.87883347871036    1.51371865909851
C          -7.69855429666073    0.39792252832506    0.98447559117681
C          -8.83737792892609    1.09679533261104    1.45128645491172
C          -9.14939646131755    2.42452117013302    1.00587725913905
N         -10.18998429371311    3.07652239404317    1.52797167999839
C         -10.93050908230722    2.48372255386569    2.44177518725076
C         -10.63062745949005    1.15464974154735    2.87154956509838
N          -9.60262350272765    0.50417236030314    2.38472307849085
C         -11.45058064516554    0.52828321460969    3.84592979830833
N         -12.13345361093499    0.06508515263978    4.63971355619968
C         -12.03050217696804    3.18631543431802    2.99008143221757
N         -12.92462807135652    3.73780665264245    3.44775686496350
C          -8.36628819463470    3.09954473920390    0.00798394627723
C          -7.30690909564105    2.33504813474567   -0.54320983275638
C          -6.97474672491200    1.01746541737894   -0.05725906866087
N          -5.97567386361781    0.47430654426858   -0.74811398929926
S          -5.46675527220638    1.51309098804068   -1.85413052195508
N          -6.51074163105541    2.70300599538442   -1.54049425200287
C          -8.69468089437694    4.41982568727059   -0.30407207014398
C          -8.18341857813081    5.30799463955099   -1.23265500060637
C          -8.65235378032703    6.64215579611040   -1.32459662792383
C          -8.06731153498366    7.38422705261397   -2.30647917903378
C          -7.11987428807727    6.65570961059413   -3.05263335021116
S          -6.96676422863220    5.01808267410411   -2.44578330183994
C          -6.38659944081695    7.10756381666225   -4.13857125355130
C          -6.36027886481118    8.41054814629080   -4.68275723981868
C          -5.55094706853409    8.54769782252580   -5.76867916415812
C          -4.89798070354380    7.34927558230993   -6.15211300323644
S          -5.34683982901413    6.04364536228931   -5.05151157142219
C          -4.06121848872705    7.18797092987237   -7.21903094404879
N          -3.47608150706423    6.00670678165049   -7.53768478273241
C          -2.71876553988589    5.71107681816054   -8.62658859351539
S          -1.65638664648217    4.33848164634600   -8.52526015013803
C          -1.06668910252176    4.69432488693251  -10.11893039334791
N          -0.09665745117370    3.82354779250920  -10.63989978191686
O           0.36638367254215    4.07311350179711  -11.73273400560789
O           0.21078485568283    2.88168307773567   -9.92890063601511
C          -1.64738289253662    5.79236371366051  -10.68477043538643
C          -2.61488534938062    6.39406498541602   -9.84890953936844
C          -3.45205844971706    7.48334271831918  -10.26430442027263
C          -3.13358724194990    8.36332485297841  -11.24151060809458
C          -4.02640205533616    9.38891105640900  -11.64287553402482
C          -3.91490134157220   10.24353189325227  -12.69467083258649
C          -3.02356756244049   10.28870259733243  -13.83626880531446
C          -2.41073086827909    9.22460521662761  -14.44478099413880
C          -1.62384752526402    9.33667678581681  -15.61134768793874
N          -0.96591484286246    9.37722151606693  -16.55023568000521
C          -2.56552782592187    7.88023489842602  -14.04891087154422
N          -2.68340236950881    6.76897946743300  -13.78615424590774
C          -3.07900747235378   11.64557306762335  -14.37161943584809
C          -4.13093706783746   12.34940019388282  -13.73044273391389
C          -4.74561085056404   11.48085612577963  -12.71068619434934
O          -5.68723468492716   11.72307481691829  -11.99073360617601
C          -4.45435163925362   13.64592242574361  -14.05087777534126
C          -3.69937518894744   14.28160107061638  -15.04190515103889
C          -2.64185259084927   13.57542857342427  -15.66582572857445
C          -2.31879393683812   12.26210743645101  -15.34733835602956
S          -1.83236023546562   14.55276502354285  -16.85098649054865
C          -2.91146658432128   15.87753355706745  -16.50214639683194
C          -3.83092500108117   15.60418512650619  -15.54545407193323
Br         -2.72032672358232   17.49533965937959  -17.43007081658750
H          -2.16324012971192   -0.07973085705726    2.46445912373341
H          -3.91144086260619   -4.73263610621608    3.09535878082313
H           0.24875964538274   -1.12582415066993    3.43443971648244
H          -8.21703357860540   -1.46588039984199    1.85354145485505
H          -9.50434490435013    4.81553964681464    0.29914058226853
H          -9.40936423624742    7.01193713010692   -0.65586774382374
H          -8.30669956562272    8.41193480188571   -2.51154819418254
H          -6.93441583554441    9.21164086394188   -4.25483275965302
H          -5.40670970906779    9.46439014737208   -6.31136128886102
H          -3.82100848257958    8.03679334309725   -7.83974266266494
H          -3.56688216249356    5.26999260076519   -6.84498351749813
H          -1.43647150351640    6.10497706662102  -11.69213432317275
H          -4.42880803126623    7.55419576342151   -9.80341954506205
H          -2.15895276651840    8.32056637447717  -11.70225723974385
H          -4.88139889596391    9.57383942437842  -10.99924496588546
H          -5.26458062042813   14.15450847637485  -13.55245574517010
H          -1.50044782079112   11.76819728287764  -15.84440928085806
H          -4.57162122540107   16.30578839147002  -15.20782351890870
