94
 SCF done       -179.565987838222          0.000547899345
C          -7.91525885779740    3.82334191702537    3.38041063405387
C          -7.23609212827434    3.86327306418648    4.56399379427740
C          -7.67248907931671    4.57367449394699    5.70450035255389
N          -7.98514970065338    5.12210628240634    6.66253305281953
C          -6.02648977469501    3.18209459860468    4.82810033830803
N          -5.05026349930643    2.65738576498159    5.12439905088679
C          -9.17304353474055    4.49673658651004    3.08937858359803
C          -9.61095416193510    4.12888000228303    1.79225429815909
C         -10.77941806801743    4.60013122036281    1.24307337450808
C         -11.55114912518529    5.48208197857630    2.00492862410772
C         -11.10343309272141    5.85030773678739    3.29751782617750
C          -9.92549450506864    5.37202039023166    3.85468291567787
S         -12.20819923835155    6.94945009856644    4.06635735504780
C         -13.24176492784838    6.89831355274451    2.66309483461629
C         -12.78537339854934    6.10144166049869    1.66760319406724
Br        -14.82648905050150    7.89923269806068    2.64379886359120
C          -8.64529690431413    3.19066231931126    1.19038879187560
O          -8.76085405900212    2.59864993244625    0.14444587097918
C          -7.53189242888893    3.07616270603169    2.18262987589343
C          -6.40813633539995    2.38407030231069    1.94181988620586
C          -6.16929698400283    1.74771178437447    0.63514538128512
N          -6.18006633143875    0.41939549246679    0.60512751843638
C          -6.03963307617633   -0.14015900418826   -0.58855673165663
C          -5.88664485845507    0.60240415034323   -1.74172203437153
C          -5.82034896008182    1.99761262403012   -1.59558223262459
N          -5.95382452277531    2.55370026872847   -0.38730846959763
C          -5.63400362273587    2.86031067463680   -2.73320695883519
C          -5.39493944789346    4.18466869189886   -2.61200330230978
C          -5.24332531992420    5.10217707180254   -3.69236391656242
C          -4.79940263733322    6.42326897848495   -3.44057579451188
C          -4.62121707849867    7.39469978545864   -4.48625581722663
N          -4.13328720267985    8.60214899730173   -4.20567312396272
C          -3.84450618519588    8.91021658390986   -2.95524130836236
C          -4.08340447946584    7.97104735048897   -1.90757727340244
N          -4.53558414305929    6.76832271067657   -2.16674103041359
C          -3.83690259729709    8.33694169749083   -0.55954001938208
N          -3.63435152605430    8.66532308279838    0.51905093064329
C          -3.30537594652061   10.18572725346160   -2.67121826710874
N          -2.86961705955749   11.21465742503770   -2.41339714279575
C          -4.97345674612742    7.11729639855277   -5.85143575712627
C          -5.43384765258500    5.79488537668079   -6.09000512620916
C          -5.53626780122172    4.80278063780755   -5.04370403141881
N          -5.95975616128053    3.63356674092286   -5.52241476256872
S          -6.20814199231945    3.75559886975676   -7.10808414057498
N          -5.78637335424664    5.30553273238945   -7.26946509566201
C          -4.82976075568996    8.13122451830679   -6.79597578785816
C          -5.22147618163432    8.22018002648797   -8.12412319862002
C          -5.00530071757696    9.37651447325143   -8.90497712767380
C          -5.55584708526998    9.33061026315475  -10.15775590797876
C          -6.24075701445938    8.13325511547389  -10.40742324165416
S          -6.11858301326504    7.04453544184166   -9.04493123996744
C          -6.97719738596620    7.76876758896216  -11.53333899832712
C          -7.17129468822593    8.47568220922841  -12.73230421468054
C          -7.99658353108162    7.83783044036689  -13.61743284771050
C          -8.50301601633918    6.60143331956897  -13.15939365010733
S          -7.85981292122356    6.27051371401481  -11.55951038994240
C          -9.38994614159015    5.79831878588598  -13.84455699548236
C          -9.98068908992213    4.59179792105146  -13.44053014488452
C          -9.78426819564304    3.86109584021123  -12.22294518869878
C         -10.60130392833210    2.74470806928283  -12.23723092565041
C         -10.78954627039708    1.72460419993255  -11.28541779365307
C         -11.70040388302867    0.74091980279453  -11.57936624658474
C         -12.12877918836651   -0.40269669625955  -10.85111453931493
C         -13.08897542402367   -1.08009586158706  -11.59639555536788
C         -13.28158603360995   -0.37361192924888  -12.81403263499047
C         -12.44458604779012    0.74438257040443  -12.82922938867573
C         -12.25757269193248    1.74819344543128  -13.77888995426040
C         -11.34072611453724    2.74820444462737  -13.48901256195654
C         -10.93477003127061    3.88623051707334  -14.20487539508729
C         -13.75533255888584   -2.28819810138958  -11.17239485819398
C         -14.68130554077176   -2.94489496455800  -11.86602942839690
H         -11.08615621515744    4.29673169046914    0.25435202156468
H          -9.62737070316866    5.68353217906188    4.84178755160642
H         -13.29688167067340    5.95444082057395    0.73390502503169
H          -5.63373908140712    2.25908200258510    2.68518396517990
H          -6.05965903546099   -1.22276100153462   -0.60007131026076
H          -5.80408609127075    0.13967332348373   -2.71170853650430
H          -5.69626400427096    2.40010979712006   -3.70785899200294
H          -5.28867842996828    4.60347936032187   -1.62090211207330
H          -4.36465090334198    9.02793674694123   -6.40178785996832
H          -4.45820099299671   10.21740044633347   -8.51645518583160
H          -5.49305562666139   10.12886819074233  -10.87554687101786
H          -6.70597397435434    9.42710939716317  -12.91622264412861
H          -8.26245749844833    8.22861678551085  -14.58398099326241
H          -9.68868449537540    6.16507526435097  -14.81989174352560
H          -9.11441176611742    4.13093988623488  -11.42911371989842
H         -10.23422515928034    1.73012071488494  -10.35835442904361
H         -11.76653905940330   -0.69023787810030   -9.88089363186269
H         -13.96171626984082   -0.65218702595920  -13.59755120443438
H         -12.81249689455242    1.74709944941458  -14.70635517890186
H         -11.29553091954716    4.18152126086680  -15.17310345840357
H         -13.44997159680121   -2.65945714217204  -10.20205534645499
H         -15.01799483382232   -2.61381648013901  -12.83339709705492
H         -15.13810676957776   -3.84152662387739  -11.48495304421367
