121
 SCF done       -203.776404500375          0.000752423393
C          -4.68691919047978   -0.48299929134316   -1.04963729334694
C          -4.99325512569950   -1.74560873763525   -0.60851649525644
C          -4.14608028767444   -2.86256446260722   -0.74978140145150
N          -3.49698790335989   -3.80553138176599   -0.83633073100020
C          -6.19814879464214   -2.08418425808906    0.03896301122591
N          -7.16638841028342   -2.40322989910277    0.56715388613523
C          -3.45447204337200   -0.09171750760063   -1.72983080256218
C          -3.51481577604267    1.29325451153116   -2.03251203673798
C          -2.50059246885231    1.95838872604216   -2.67745544258184
C          -1.36806365894739    1.22229683937807   -3.04098382017075
C          -1.31336618613096   -0.15757285428445   -2.73238437927017
C          -2.34125001065638   -0.83041610244691   -2.08105012255779
S           0.17666843596554   -0.87251053540867   -3.26646533040123
C           0.69906336883638    0.67050387242577   -3.88876749131789
C          -0.19548181950415    1.67108271087832   -3.70770715856062
Br          2.37419373191819    0.81420249643563   -4.71998210541190
C          -4.79190519643341    1.82908826654718   -1.54627329219498
O          -5.19444444917052    2.98501100860025   -1.63200919035666
C          -5.50321428705744    0.70236820272824   -0.93510054062641
C          -6.74206543790112    0.85905116407320   -0.35914327299813
N          -7.32856130408618    2.06005150711572   -0.34348976147857
C          -8.51332697437993    2.39482755109185    0.22976029117283
S          -9.45919880730255    1.24867937751626    1.12957568757648
C         -10.56634690234720    2.51891936010656    1.53822209724559
N         -11.67470186786224    2.19301046593464    2.32961907395356
O         -12.44346616679620    3.09049628289337    2.62105582206635
O         -11.78329885520065    1.02801496666934    2.67006049378868
C         -10.21904045756825    3.73947847825292    1.02031673740020
C          -9.04865753716353    3.68701159496474    0.24409690077321
C          -8.45757277584310    4.83489423263979   -0.40964366148720
C          -7.82590050647351    4.79515914321010   -1.59450885937100
C          -7.12167454905935    5.88038083974376   -2.23807647906596
C          -6.71505803582196    5.71165780827620   -3.57005955964280
C          -5.97824329125148    6.69105112634094   -4.18747987602137
C          -5.62118924605188    7.85804826797098   -3.49153918634242
C          -6.03099290948575    8.04414985720998   -2.17812865002773
C          -6.77702994969366    7.05905455259916   -1.56519029970089
C          -4.79995512008737    8.67396356381590   -4.35604073585686
C          -4.66137936239892    8.02197153011879   -5.59605924730341
C          -5.46122981673707    6.73772399030469   -5.60984125244034
C          -4.59960045275594    5.51529959616208   -5.95806837244243
C          -3.50128611016789    5.26506348655548   -4.93039605625280
C          -6.69888065905915    6.84539196577087   -6.53199151971822
C          -6.41113210703148    7.05694765956732   -8.01235041437917
C          -3.86847834365799    8.56671673911690   -6.57505821674511
C          -3.20430463229787    9.78626729525899   -6.34801172613965
C          -3.37416210442568   10.42957374945524   -5.11240803087178
C          -4.15976784953695    9.88328094245242   -4.12047834606522
C          -2.39685611109008   10.33472641052628   -7.40355152780629
C          -1.45847400565403   11.30651157411006   -7.26703095106190
C          -0.68723565595349   11.88530929358691   -8.30023305676172
C          -0.85480300411533   11.80722839618612   -9.65915984419078
C          -0.02540903467786   12.45670121701427  -10.61249863983941
C          -0.41977359083133   12.30936459555687  -11.90533138980027
C          -1.59063448486573   11.53324548536566  -12.06159376330896
S          -2.15442166961306   10.97502294202467  -10.50034777909191
C          -2.25845243314798   11.23012850936422  -13.22972039142745
C          -1.91599065109193   11.60955453236930  -14.54764496252170
C          -2.79542181644631   11.17723429639955  -15.49010261061924
C          -3.88759820890072   10.43023255408992  -14.97573698663433
S          -3.73882442755055   10.28959300013426  -13.23341922313953
C          -4.91569917145391    9.91695350795029  -15.72190093132135
C          -6.02554951036866    9.17614700138005  -15.27881024500364
S          -6.22851750364261    8.68497069761683  -13.61434344901848
C          -7.72685789953209    7.86622154868405  -13.97327936876859
C          -8.04049579201058    7.98803011407822  -15.31140418573538
C          -7.09537153533837    8.72174567955263  -16.04476719578721
C          -7.35807248069503    8.98801519233144  -17.49080742202444
C          -8.33530086133408   10.16878161581357  -17.63250163582486
O          -9.23558428742600   10.16709247661773  -18.43045101217252
C          -8.06898321639468   11.33125176194438  -16.71502263921039
C          -7.90034041896851    7.74580066896001  -18.22735770537524
C          -8.54388392581768    6.70778200554451  -17.30216698173698
C          -9.16669785997057    7.36431073319188  -16.06647417680072
C          -8.46533406131522    7.19006907154047  -12.94871082042053
C          -8.09676071625158    7.11289976725261  -11.67067376038664
H          -2.57609377624841    3.01253780257716   -2.89362578456423
H          -2.25118764479412   -1.88250405183572   -1.86862603490179
H          -0.03655963806721    2.68445404736055   -4.02842978020248
H          -7.28160015359953    0.03597815575726    0.09150866055685
H          -6.76764058604367    2.81918094567155   -0.77201690398574
H         -10.80389149426276    4.62655409891069    1.18391816037672
H          -8.58152242687332    5.77064936932249    0.11645234213621
H          -7.84324015180384    3.87598737577026   -2.16728879124979
H          -6.97733027505649    4.80264564729909   -4.09244933738412
H          -5.76135934303847    8.94042037586983   -1.63964524686063
H          -7.07789436319076    7.19069408362090   -0.53722968314667
H          -4.14287675652415    5.66928910820017   -6.93661735757619
H          -5.24243523731820    4.63444958998718   -6.02112924388500
H          -2.86287461467357    6.14104266331713   -4.83339000756904
H          -2.88706655560078    4.42187221938087   -5.24162388509617
H          -3.93190901520020    5.04311042697695   -3.95604542866032
H          -7.31147011160516    7.67658918863587   -6.17231121983213
H          -7.28297258770693    5.92997708554030   -6.40940877558815
H          -5.91168774371561    8.00697771640031   -8.17981693369707
H          -7.35085364539424    7.07074898286446   -8.55994759686767
H          -5.79726036958369    6.25653084275848   -8.41701547312784
H          -3.71916383302932    8.06460240107819   -7.51950944224234
H          -2.89075967006262   11.37857789944315   -4.93858093204038
H          -4.27390088896704   10.38837981579315   -3.17270342870701
H          -2.54395698153073    9.88395153542645   -8.37529621878163
H          -1.23263259065062   11.67338886653646   -6.27421052512375
H           0.13622112581618   12.51304795162863   -7.98095716276104
H           0.83668824974787   13.02140660599258  -10.30292612312772
H           0.08903281140295   12.74506084268159  -12.74637627109693
H          -1.03676108774132   12.19011728455922  -14.76193070776466
H          -2.70140967071189   11.37170773943587  -16.54431349519738
H          -4.86227982258622   10.10530116152805  -16.78750666732036
H          -6.44251572598586    9.32960637430127  -17.98628643190494
H          -8.40631910389008   11.07190124507225  -15.71241253454354
H          -8.62276265262796   12.20255380464343  -17.05546656519938
H          -7.00744597120050   11.55659161795287  -16.66133739082109
H          -7.09418509812488    7.27256060994830  -18.78886010230616
H          -8.64292653071315    8.10172763585713  -18.94509630806798
H          -9.30273311561110    6.15208646615964  -17.85379009094027
H          -7.78882566027884    5.99453063918646  -16.96199434196148
H          -9.69392485318996    6.62441097246316  -15.46522227105137
H          -9.88373345393934    8.12820221252671  -16.37959238973673
H          -9.38509630904387    6.72222300702419  -13.27479411192586
H          -7.18798726835146    7.57238971686129  -11.31877371783792
H          -8.69272887038720    6.58905457425093  -10.94467463479596
