105
 SCF done       -211.922856523690          0.000869563885
C          -8.00973403928596   -1.63363166637603   -4.77311682649662
C          -9.21417516369394   -1.97382958338693   -5.32951750926333
C          -9.38213296786526   -2.99840043005361   -6.28405112449146
N          -9.56912605943407   -3.81265343741109   -7.07120516725583
C         -10.44375315257983   -1.36931804396939   -4.99128876411540
N         -11.47761404824266   -0.93683627979707   -4.74207587352995
C          -6.73487913820493   -2.29806472534554   -5.00165842957813
C          -5.77004848206544   -1.74633803017476   -4.12213616382797
C          -4.46378827840129   -2.17143349756479   -4.09812370920053
C          -4.09198714523029   -3.18850217228270   -4.98337612439184
C          -5.06248351150958   -3.73137392247247   -5.85986507766693
C          -6.38356051963058   -3.30249480327424   -5.88405912498610
S          -4.38756379420784   -4.97097844620899   -6.87203576605623
C          -2.83259037285068   -4.74709248431292   -6.11589079457881
C          -2.81739171914661   -3.79442180645861   -5.15330580864980
Br         -1.37661058232435   -5.79072858771572   -6.66881641640226
C          -6.39387667483436   -0.69541303068255   -3.29634382325739
O          -5.84510488296880   -0.00421887881721   -2.46457733803222
C          -7.79659049982676   -0.60190144296196   -3.77559356170553
C          -8.63198308479873    0.44214435324148   -3.51550233123434
C          -8.47733234657451    1.40845635193843   -2.48658370183335
S          -8.83605999494078    3.07296378751513   -2.87301626028878
C          -8.40838658120184    3.59064539707363   -1.27170965544740
C          -8.07969892912646    2.50510814221212   -0.47466217326600
C          -8.12237666308568    1.27761282684079   -1.15528409300542
C          -7.96328271294411   -0.00690907078265   -0.41850482876672
C          -7.03407146568063    0.16713154948336    0.78150099528175
C          -6.87423485090084   -1.18987215492758    1.48268872493997
O          -7.28392467763204   -2.21006479148259    1.00501840582289
O          -6.21381649471289   -1.17278334500644    2.63628547800960
C          -7.58434839732162    1.27307062327078    1.69236521720000
O          -6.74298662558259    1.40397155416105    2.83230442487295
C          -7.63252864267461    2.61835690048237    0.94970093979537
C          -8.41864989617248    4.96978296852807   -0.91350616632717
C          -8.66811243933517    5.95797601822518   -1.79552034642532
N          -8.70775651609848    7.28285579546356   -1.46957975490602
C          -8.88268658786438    8.29987173655538   -2.34936529484995
S          -8.96638555380473    7.98644486013644   -4.05217526113747
C          -9.18422425139602    9.68525439906789   -4.33787070287820
N          -9.31457019270576   10.10290038168017   -5.66446812447872
O          -9.46294961948838   11.29275209397566   -5.87388809657000
O          -9.26409698557886    9.23142551089049   -6.51736672867594
C          -9.19515223122439   10.43280830601514   -3.19308634957020
C          -9.02288879556344    9.65924213836769   -2.02799879246564
C          -9.00293801603658   10.17977731407742   -0.68793203921723
C          -9.36378606146426   11.43837093275783   -0.36332128253684
C          -9.36019392663230   11.99362399737265    0.94866293072586
S         -10.03434310785483   13.60193992168871    1.14849460733788
C          -9.71293347383558   13.55520528970117    2.83788534467513
C          -9.10376267553231   12.34956699752124    3.20712595467738
C          -8.90842584340169   11.46888621066744    2.14215094795693
S          -8.75616758232705   12.26777342806587    4.91294921422822
C          -9.44276161270192   13.85611941993225    5.12745296252993
C          -9.63328175190048   14.68204512407643    6.23109173411776
C         -10.25627040621221   15.87005760552144    5.89011907578417
S         -10.60170821339258   15.96326261394851    4.16810854860972
C          -9.91104021306372   14.40843591755342    3.92609581306494
C         -10.63690344329769   16.91265999875713    6.76485412108693
C         -11.34298217826012   18.00676262924028    6.37668997484218
C         -11.75862003970103   19.02152075722788    7.26400236625435
C         -12.64466814782735   20.02341994496796    6.99449211005570
C         -13.54031737975714   20.22570494428132    5.87719346913654
C         -14.12814710185859   19.25115747948612    5.11126211650278
C         -15.03331019045816   19.51801985446453    4.06344220697685
N         -15.75898417014065   19.68123122378482    3.18907298061113
C         -13.99989858476335   17.86609632853311    5.34707536346701
N         -13.98366159316693   16.73178280684734    5.52357421289742
C         -13.90215683668239   21.63999900841446    5.86401681387326
C         -13.43659356143613   22.23890976674812    7.06240665324627
C         -12.69389429238726   21.23491016209829    7.85256893550908
O         -12.18838344369639   21.37417377008032    8.94305435259420
C         -13.66861499922538   23.55866326022804    7.36431877727772
C         -14.38305701107541   24.32539647626166    6.43731678767442
C         -14.82885116792731   23.72167855390397    5.23719872168182
C         -14.60163568155597   22.38474420408091    4.93412777781238
S         -15.68069737581265   24.85231759751495    4.23041631288128
C         -15.43533193540490   26.10275779317002    5.42076170467214
C         -14.74896063758839   25.69714931563298    6.51539164258062
Br        -16.10792059662071   27.82458264493424    5.10499859314776
H          -3.75085585554596   -1.73462410206855   -3.41665497516346
H          -7.08619827280809   -3.74182508940659   -6.57241304068372
H          -1.94414483876576   -3.52863757903689   -4.58615107626545
H          -9.45458043315660    0.62503431099944   -4.19770488159259
H          -7.58063008938976   -0.79972234215939   -1.05310507825818
H          -8.94734059390306   -0.33196271821491   -0.06209211290314
H          -6.03884601323145    0.46268367989051    0.42835187551929
H          -6.05845790062407   -0.25723271554296    2.93947593657279
H          -8.59801889903032    0.98705806288160    2.01354820626058
H          -7.12620127310210    2.04168646506954    3.44332658046533
H          -6.61760909320058    3.03279165976893    0.96235302981523
H          -8.28052987820469    3.30924882867332    1.49730109602707
H          -8.20581856150663    5.20816476224431    0.11951412647821
H          -8.85564437389063    5.73340446230845   -2.83565520384163
H          -8.59816389611584    7.52863250280079   -0.49364271661686
H          -9.30981925111192   11.50040405857082   -3.21575810458921
H          -8.68804857314408    9.50797213486392    0.09886076614134
H          -9.71541431213283   12.10676778415537   -1.13552236809652
H          -8.45155802829820   10.50235541502462    2.24191531988943
H          -9.34587924738845   14.43387978782162    7.23620649735865
H         -10.38431834872809   16.77934024125554    7.80879866104546
H         -11.59801015036110   18.10783734787411    5.32999777209731
H         -11.28846116495383   19.06092287143463    8.24074911054156
H         -13.31184204634832   23.98736769101373    8.28759443253323
H         -14.95588218939251   21.96902892422549    4.00538250200461
H         -14.50969789421155   26.33733519818736    7.34471571755205
