96
 SCF done       -197.566728215831          0.000995916323
C          -4.66702737150052    4.46190693381955    7.61111940079153
C          -4.78344297700091    3.42207799215134    8.49727627759116
C          -4.01657109515719    3.29220120713097    9.67279058391609
N          -3.41951239217691    3.13727904298064   10.64089741101610
C          -5.68514609633259    2.35040662632862    8.33777204678375
N          -6.40515369165930    1.46121709099493    8.24297354327874
C          -3.74641645065363    5.59048544150873    7.73170314068237
C          -3.91689694723651    6.44575693547598    6.61162920674643
C          -3.19031572288060    7.59952466690040    6.44182617777936
C          -2.25018785843879    7.92846372788352    7.42400362531376
C          -2.08718673294572    7.07100272202871    8.53810683177297
C          -2.82203493082999    5.90260604585746    8.70905183694785
S          -0.87660670244173    7.66688979995974    9.63087476770928
C          -0.60855080383826    9.04151543561506    8.59191436372703
C          -1.38527785634157    9.05487505442815    7.48212726175761
Br          0.66925587664101   10.32849031958040    9.06868999060925
C          -4.95787452804333    5.88557066105648    5.74431599035684
O          -5.37636264052091    6.34850515191892    4.68447162510184
C          -5.41601109591934    4.65465694151246    6.39155206334156
C          -6.42092930865096    3.88935325618313    5.84590570720526
N          -6.99030556290071    4.26963453988358    4.69707293193164
C          -8.01134516743419    3.67656201097217    4.03550924210230
S          -8.77196440518906    2.23046986885557    4.62011361063142
C          -9.86292189297561    2.29341430165234    3.27252177237904
N         -10.82614804989800    1.27743238123299    3.16479391847498
O         -11.58532908170127    1.32078156800617    2.21636704683510
O         -10.82430511317741    0.42805085049081    4.03661196133321
C          -9.65576012665447    3.35494355708304    2.43719668693483
C          -8.58245550521202    4.17433689788486    2.85057312749385
C          -8.11365223781958    5.34358536800091    2.17860859671823
C          -8.75679397007947    5.97246117261338    1.15790537359415
C          -8.24447207508909    7.12498370106415    0.53623925921561
C          -8.90252001434465    7.85897429065157   -0.41594854540314
C          -8.43205979773177    9.03750621022975   -1.04966969133302
C          -9.31827002971422    9.60331450236171   -1.91139197774844
C         -10.54591527642552    8.90629083864321   -2.01044502413164
S         -10.51885530712217    7.48243570615992   -0.99144495706363
C         -11.65820243404146    9.27016733149951   -2.73924395146948
C         -11.83351262362234   10.43198043510538   -3.52818200433934
C         -13.07629658336686   10.56485566460105   -4.06052842085494
C         -13.96454531567143    9.50793532756648   -3.72787777842093
S         -13.12663553416170    8.31467146525238   -2.73292988941720
C         -15.27956742094560    9.41832004097461   -4.07349681748045
N         -16.07994155371808    8.38477058016164   -3.69670604126525
C         -17.40840268235753    8.21661943334232   -3.90400627269648
S         -18.22768194612250    7.03829883314530   -2.91961671846465
C         -19.74323841754525    7.52147837428334   -3.62066983371355
N         -20.88343908482979    6.83769551487188   -3.18030386850862
O         -21.96266702935749    7.17979055202761   -3.61912732290604
O         -20.69261887212355    5.94646465586729   -2.36831162794074
C         -19.62253847682296    8.52035490140977   -4.54422524174093
C         -18.28470267004161    8.92769349958229   -4.74197591508305
C         -17.90287066363736    9.88414764880419   -5.74155903321842
C         -18.69831314806437   10.90034522310956   -6.15343617525234
C         -18.29951051585312   11.79657970129479   -7.17228710796219
C         -19.00029769496419   12.82840804783127   -7.72053504214752
C         -20.38325448567704   13.24499774611826   -7.61895993539399
C         -21.47361078090395   12.44732692816912   -7.38423594307485
C         -22.80164976571824   12.92362156243542   -7.36114553088619
N         -23.89602998861758   13.26628717391424   -7.31674108868872
C         -21.42196914043117   11.04642899550683   -7.23400126800502
N         -21.44102198561993    9.90224994625034   -7.13972501567763
C         -20.44282012792048   14.64420168923463   -8.03517531632177
C         -19.18930053811725   15.01095680660624   -8.58824362277567
C         -18.25892248679695   13.87228905000787   -8.47842665360487
O         -17.11290128608776   13.80707091356320   -8.86370382665102
C         -18.94633380326263   16.26034514117800   -9.10501122052980
C         -19.98457653157727   17.19677315474203   -9.06469202356473
C         -21.22724863322802   16.82668747869830   -8.49601751975007
C         -21.47605869928537   15.56039462613185   -7.98036442819151
S         -22.36402244100898   18.13954437268675   -8.53493738285438
C         -21.17308304910211   19.15305167547668   -9.30715547987361
C         -19.98416507263181   18.54188917644386   -9.52470858985746
Br        -21.61085758075450   20.92155408744095   -9.75162533407045
H          -3.34232061040586    8.23020570642461    5.57991269118349
H          -2.66133435766989    5.28360950346645    9.57584533516518
H          -1.35066165078518    9.82686836644760    6.73521710811173
H          -6.78586539921456    2.98323136412378    6.31139837924114
H          -6.59222782598151    5.14904389723735    4.31503313228166
H         -10.25101306798681    3.51485122928018    1.55731298398014
H          -7.17971660892725    5.77046205438314    2.51943320731759
H          -9.71291635153825    5.60836313277496    0.80780509643610
H          -7.26789380167913    7.47633037259710    0.84264932824744
H          -7.45331839447461    9.42974787756613   -0.83755264221395
H          -9.12886917320389   10.50120428719754   -2.47131278798698
H         -11.03945651655072   11.14248700063860   -3.66750995561764
H         -13.39332336822613   11.38803606301106   -4.67511864745800
H         -15.73654681763704   10.21921976705608   -4.63041140631170
H         -15.64240023542435    7.70364170534501   -3.08373473715261
H         -20.45884029253900    8.89691467869411   -5.10812976681694
H         -16.94715178606143    9.74016755374816   -6.22880255329746
H         -19.63923284278167   11.06724494753478   -5.65323027689876
H         -17.27379386392360   11.71566222996224   -7.52036222995638
H         -17.98509929112159   16.50809695991796   -9.52737602476386
H         -22.43686906047722   15.32826500468093   -7.55164699971924
H         -19.14050668101537   19.01853574476949   -9.98968517455328
