80
 SCF done       -157.268740626548          0.000973061005
C          -3.20558744252289    0.69329573859800    5.94797369609284
C          -2.15042224494158   -0.07863468640667    5.52259141153769
C          -1.50404754605454   -1.04352698942217    6.32097744013149
N          -0.93415627902971   -1.84260785331396    6.91798660082130
C          -1.53545412384137   -0.00329157676123    4.25758709466464
N          -0.96601206312990    0.00862293557265    3.25856086881941
C          -3.79864137474221    0.64403145119601    7.28159425735557
C          -4.80631219960382    1.63502711815916    7.36710081494744
C          -5.53508214567209    1.85671167190379    8.50881700559505
C          -5.26620921897727    1.05085716545519    9.62095028111421
C          -4.26401803907839    0.05789590445573    9.52481321664158
C          -3.52034696846077   -0.15983056148674    8.37064913186391
S          -4.08999251694079   -0.82045152790243   11.01456530856330
C          -5.35037428635480    0.14510966955065   11.73482396019659
C          -5.87523923312477    1.07778616539290   10.90530114283168
Br         -5.85046362651991   -0.16443063853930   13.51618073250411
C          -4.89478361178992    2.35219847834133    6.08014473225435
O          -5.55295776173093    3.34860874711799    5.85680888065916
C          -3.92425466110780    1.68810158472518    5.18350614306017
C          -3.64952309951157    2.06142115333624    3.89152728784820
C          -4.44748102524985    2.87279494239724    3.05030794049516
S          -6.20046214025910    2.66816340947477    3.25110276097277
C          -6.74032506360720    4.32841931855052    3.09590319647589
C          -7.72502966451219    4.91095079033489    3.82655331839381
S          -7.98942995202274    6.54087856362231    3.34538604430193
C          -6.74600956595445    6.44321107781926    2.16039265632585
C          -6.17385665635423    5.21062825567923    2.14140729551069
S          -4.88990886321448    4.73227929280007    1.04139331130272
C          -3.89582667381042    3.67070609266455    2.06055110567511
C          -2.51482293664038    3.72402361891815    1.76975028754454
C          -1.91655495057868    4.73989271795013    1.07099939319157
C          -0.57014789642360    4.77481298286955    0.70928368249690
C           0.02388274036292    5.89151270444545    0.15783450126166
C           1.35728180815368    6.04146181828347   -0.28326652258867
C           1.65965072988184    7.29016086516747   -0.74578250790662
C           0.58183155822772    8.19633935627199   -0.67781969111225
S          -0.84156084986736    7.40136282661700   -0.04183598304820
C           0.55699498636861    9.54257500521595   -0.99299421752816
C           1.58759245793556   10.35637564104172   -1.51173180415716
C           1.24556226206914   11.66671589612916   -1.66135706005834
C          -0.07931369690981   11.96658687497063   -1.25948314067470
S          -0.88402454036294   10.49167649208606   -0.71305339638729
C          -0.70068108918322   13.18200728794146   -1.22811811805830
N          -1.96710790874059   13.32544653106269   -0.76960524945331
C          -2.68080324875503   14.46832258097076   -0.65285627795138
S          -2.09383867175909   15.97105877194726   -1.29515151955122
C          -3.58505724545247   16.73121484991804   -0.83102433252246
N          -3.71745863063149   18.09177249952254   -1.10145887355461
O          -4.75855314703668   18.63956534251135   -0.78287900715475
O          -2.76582674730441   18.63565462054894   -1.64316578061378
C          -4.46820298190289   15.87281618603068   -0.22906080409258
C          -3.96384263497086   14.56802719329887   -0.09346689051552
C          -4.71026446179182   13.51043494737506    0.54509550485229
C          -4.20535330019921   12.43323778847016    1.17455127823855
C          -4.99225597637888   11.40691573778619    1.78957072381989
O          -4.32955625306252   10.39755750472880    2.40773394857084
C          -5.24615243747475    9.56069453346575    2.90695259128338
C          -6.50775046780011    9.99991817771571    2.62818059946865
C          -6.34973535699378   11.19658986609351    1.90162046822858
H          -6.29147442469439    2.62504817261778    8.54389287244252
H          -2.76383933333082   -0.92613454270307    8.35157454532574
H          -6.65802125651142    1.75853712159298   11.18622214868321
H          -2.72667230965597    1.69533785985368    3.46216460362766
H          -8.30694140816699    4.47205596657865    4.60990816917147
H          -6.51661735256756    7.28619538942744    1.54151647935928
H          -1.88990014166090    2.91765739009795    2.12754600364909
H          -2.51418798727279    5.60337390463992    0.80300280410453
H           0.04494100243424    3.89985168148074    0.86866277591744
H           2.05385690506529    5.22270997344241   -0.24616115380333
H           2.62571936519380    7.58055937196474   -1.11798826279970
H           2.55264189750591    9.95197424345353   -1.75791296858317
H           1.90243686261745   12.43019981344167   -2.03720338642644
H          -0.18770212146033   14.07731115627588   -1.54565503147422
H          -2.45210095858595   12.47296540228188   -0.50290171559911
H          -5.43375714762156   16.19165697437670    0.11964164478421
H          -5.78190766489454   13.65023316361785    0.53687570590027
H          -3.14088858695609   12.29393007465895    1.30829880327549
H          -4.89027748320347    8.69833258409651    3.43543212379924
H          -7.42833976847798    9.53031314441213    2.90938517248375
H          -7.13059115271924   11.81862424189997    1.51617922754220
