101
 SCF done       -210.411004218969          0.000515376248
C         -12.21097664476374    1.35314355649181    1.16592849342824
C         -13.55336562923919    1.43175853495915    1.43498465954700
C         -14.29413904742241    0.41093189490894    2.06681429214596
N         -14.95449874815285   -0.38380274612052    2.56698602297928
C         -14.38425911289118    2.52596860187898    1.11675392116201
N         -15.12352226106199    3.37889033555393    0.90481090841496
C         -11.33247725307759    0.24946400017453    1.52935012136549
C         -10.02982179900331    0.51874757077184    1.03941449060563
C          -8.97750447973377   -0.34843260457484    1.21222638445190
C          -9.21167057469456   -1.52269564355383    1.93215321288414
C         -10.50655772433318   -1.76476459126817    2.45252021539052
C         -11.57751197818533   -0.90397622783659    2.25198413619243
S         -10.55877510305510   -3.23687472614480    3.36602877591231
C          -8.87064443383550   -3.50839915506805    3.03801351828668
C          -8.29327243907883   -2.55078776480352    2.27558054482672
Br         -8.02827467512435   -5.02300148272436    3.74668566899531
C         -10.02074589066672    1.82327278193271    0.36276288137189
O          -9.10928539149918    2.29372803806639   -0.28815801677992
C         -11.39711599404211    2.37209220274766    0.53055857417113
C         -11.80312313936727    3.58800403586236    0.06576822606686
C         -10.90826757432089    4.65581148594958   -0.21922390573438
C          -9.70924827064361    4.83051683063448    0.50575152647618
C          -8.75402591656475    5.84467045189721    0.15593018958119
N          -7.54816644221208    5.86217673232339    0.74058381580951
C          -7.28571839398586    4.99825519322133    1.69837745171858
C          -8.33625128019807    4.17317480953339    2.21610639640570
N          -9.49245788928790    4.10400564515268    1.60706157930468
C          -8.21342307786715    3.44901607558813    3.42540870739447
N          -8.16711108005146    2.86822177442746    4.41190953806931
C          -5.97360395734612    4.93546825904057    2.22102616535658
N          -4.91075387678153    4.88118976035727    2.64624697135949
C          -9.03435956229235    6.83147155358090   -0.82611613083015
C         -10.29854575305856    6.75692940776279   -1.44000207382673
C         -11.20907415149819    5.67007976206479   -1.15020118907560
N         -12.33184407428866    5.77238643823702   -1.85949333277979
S         -12.27621404046242    7.08935405295287   -2.76813933790652
N         -10.82042719486125    7.60546737948370   -2.32756637660075
N          -8.05639763540911    7.75141389010339   -1.04194232934198
C          -7.89500181160438    8.73757565369069   -1.95162126479852
S          -8.81185508101845    8.84778857691171   -3.41827409506999
C          -7.80025532307536   10.16196262634916   -3.93431877868552
N          -8.08564630983833   10.74710410467710   -5.17719264287978
O          -7.38511340497556   11.66913079478835   -5.54626570811040
O          -9.02486866572834   10.27803701172466   -5.79508913688535
C          -6.83862553623076   10.50818107540301   -3.03128939781206
C          -6.87022586233964    9.70962947110820   -1.86509469122206
C          -5.95694863156328    9.95573049275155   -0.80111178770518
C          -5.93380566694271    9.46824957468928    0.47371028659024
C          -4.91276737110693    9.80035304089768    1.37847596436352
C          -4.77988453102896    9.25947029147504    2.63432203679997
C          -3.73167326435963    9.50271342548683    3.55414129122987
C          -3.78721718363321    8.73592065728415    4.67829597185063
C          -4.88094075371688    7.84239199041798    4.70792022300804
S          -5.87683367090909    8.05481011053538    3.29152188856850
C          -5.13967783192530    6.85860667624820    5.64671851896991
C          -4.37507377082431    6.54269146946186    6.79262091897897
C          -4.81350307258034    5.43954714801124    7.46114986866839
C          -5.94565946266509    4.82507059724583    6.87565886135292
S          -6.46611784971034    5.73629198474525    5.47754404319550
C          -6.56747298498716    3.63882113350094    7.19904346535048
C          -6.26312609829784    2.84761567183363    8.30863543939787
C          -6.73457913441144    1.57252361792361    8.52065646001205
C          -6.77330115246736    0.98131926965361    9.87894590039665
O          -6.22650232129754    1.40545366637485   10.87382718245808
C          -7.66039583283225   -0.19498914416770    9.76130395644694
C          -8.08530744018250   -1.05283079879459   10.73357658911874
C          -8.94598605779094   -2.11934291748559   10.38650309918918
C          -9.35785642842154   -2.27153136717514    9.03067400636661
C         -10.21435939794851   -3.33621921367328    8.69111663052185
C         -10.62881927981368   -4.20106551610195    9.66584982014268
C         -10.23481799707679   -4.06901416703067   11.00401702492430
C          -9.40494072014028   -3.03905225490154   11.35104292286385
F         -11.44510300903339   -5.22029895763752    9.34344602619936
C          -8.89957494469412   -1.36815577805152    8.04277549143694
C          -8.05900704550621   -0.35047052007170    8.40100902835862
C          -7.37944279401048    0.67016985454815    7.60620852440710
C          -7.19899016473188    0.63498075124834    6.24276484470514
C          -6.19610315452844    1.37028382869208    5.57642683220585
N          -5.32377191279209    1.86950099002621    5.02138550882286
C          -7.91131575075495   -0.22269540778818    5.39047698787458
N          -8.50603369681598   -0.87936838328769    4.65837918182929
H          -7.99876094132541   -0.11790405983007    0.82115525058859
H         -12.54684549791264   -1.13932523586591    2.65919125526510
H          -7.25830489404326   -2.55452801311272    1.98641825382753
H         -12.85176147985415    3.79799146980817   -0.09596041239570
H          -7.26167440503264    7.58427042789442   -0.42024223692243
H          -6.14828651787433   11.31639449278376   -3.19319592884653
H          -5.17749825149419   10.66228025571213   -1.05883131308681
H          -6.70671644146126    8.81786985448039    0.85926651135250
H          -4.14807010471764   10.49500516651733    1.05717910096405
H          -2.95968422835748   10.22171157242855    3.34499217738732
H          -3.06333782223748    8.77346489606317    5.47168056604233
H          -3.51708933985866    7.12173397578677    7.08265843591896
H          -4.34031829916747    5.03749179196013    8.33841573977382
H          -7.35276249714346    3.30871503705586    6.53236011080007
H          -5.68462746169676    3.27375749542602    9.11954404756550
H          -7.76479571089479   -0.92452567165759   11.75664316406194
H         -10.53607445881725   -3.47047110017849    7.67010032990713
H         -10.59344967171761   -4.78167676780032   11.72963148014957
H          -9.08757389667502   -2.91743015262178   12.37579534210280
H          -9.23091321483137   -1.50202267921850    7.02523613600991
