90
 SCF done       -176.888195680367          0.000646039820
C         -11.29771333366066    1.28223186696215    2.24446418536431
C         -12.48394868013444    0.87232488133867    1.69111972295067
C         -13.48296059066001    0.16503743558402    2.39233002576469
N         -14.33588627708959   -0.40282799325753    2.90983264588816
C         -12.87286460151406    1.08996692842886    0.35284299272468
N         -13.25535296090656    1.22270189474686   -0.72173678541325
C         -10.85777705297832    1.01903903430436    3.60783283318881
C          -9.55654557822117    1.55267915778688    3.78287034125217
C          -8.87160911002309    1.45977560737619    4.97004730424681
C          -9.49664579845374    0.80282601364245    6.03511238288638
C         -10.79757673989949    0.27428777311343    5.85190638229688
C         -11.49207183768859    0.37197147008593    4.65306128306523
S         -11.38716135957032   -0.48851895794739    7.29674918844127
C          -9.89933563052145   -0.09457016009424    8.11645466307627
C          -9.00525561674142    0.57371633504594    7.34916591541198
Br         -9.66935337447518   -0.59874952337424    9.90723007019643
C          -9.11549528726773    2.20190567895676    2.53545816613932
O          -8.12352804204464    2.87627836084169    2.38192199502337
C         -10.22964209557173    1.99046900577335    1.56446073148923
C         -10.27453042476996    2.53273889516099    0.31746618498211
C          -9.14505596430307    3.02593521049156   -0.38571183879143
O          -9.33550795792270    3.96077176165671   -1.35893201833096
C          -7.80619567327769    2.68175398338488   -0.37702404409183
C          -6.81738623706995    1.74856805732365    0.18540802254977
O          -6.93030249347074    0.84026986464444    0.96238733492280
N          -5.63327771259481    2.10458755211722   -0.46158566909655
C          -5.75208327220954    3.11062863083726   -1.41087711856280
O          -4.85215388352289    3.54171746179444   -2.08910186529529
C          -7.17269685529688    3.46465134580106   -1.36823377439933
C          -8.15346911600489    4.25173719439230   -1.95100639181278
C          -8.10586918028828    5.22267861178851   -2.98697010075135
C          -6.95639738793104    5.56478850019087   -3.61121730586388
C          -6.91235158776202    6.53568765858027   -4.65751110664953
C          -5.81611491485452    6.95000212620713   -5.31812301512394
C          -4.42581720826274    6.45808835010811   -5.09456190148174
C          -5.95540109948841    7.97461398908425   -6.42023683829267
N          -5.79046641092720    7.34915753669335   -7.71060277025456
C          -4.76633658737843    7.56763490786485   -8.54958701081597
C          -4.53582438928681    6.84347289628591   -9.68180780057812
C          -3.51586217693753    7.14655862084745  -10.59451645808223
C          -3.26092309813439    6.43396145234391  -11.73999865612829
C          -2.28119721805851    6.70552964839419  -12.72173942406549
C          -2.26548759534048    5.82034663380583  -13.75824017978440
C          -3.22626659104547    4.79123012473587  -13.64597872407421
S          -4.16541567745500    4.99100895660520  -12.19175672569854
C          -3.43993081333498    3.73112326625058  -14.51230202009496
C          -2.77480681223659    3.45330488243488  -15.72229453173986
C          -3.20103991510874    2.30940193215843  -16.33386311328690
C          -4.21943132928726    1.62308849256648  -15.63568960845374
S          -4.63532853894112    2.49436753287836  -14.17745496256489
C          -4.80653295546247    0.42893016888726  -16.00576049664851
C          -5.78635118998239   -0.22031914151799  -15.26184297958174
C          -6.35008480280071   -1.43520931643678  -15.58531441141262
C          -7.36260336547142   -2.08014918782060  -14.74963415325179
O          -7.85266708776610   -1.65877164438460  -13.72413808613443
C          -7.66954463281050   -3.37913326825670  -15.42525886774239
C          -6.89685063882929   -3.48911556063553  -16.58929751614554
C          -6.04131120246566   -2.27044876994864  -16.74259036823795
O          -5.26285467454654   -2.05179000716371  -17.64796790739002
C          -7.00488340412722   -4.61685300153749  -17.38144725692658
C          -7.87771026933842   -5.64147309868739  -17.02476709325042
C          -8.63887548482659   -5.53316907187788  -15.87830201695582
C          -8.53483890323032   -4.39907624895789  -15.07676620964656
F          -9.28633731254910   -4.32867544833256  -13.97191792897795
F          -6.28124621796905   -4.75592903152554  -18.49856614829745
H          -7.88175650410482    1.87590390916112    5.07060411638859
H         -12.48241457490229   -0.04245472406169    4.56528944810831
H          -8.03904258503091    0.89326526599733    7.69442943570983
H         -11.21393127338268    2.61738111705938   -0.21273351724460
H          -4.75709977613394    1.63873749984381   -0.27205505970164
H          -9.04929755378364    5.67829755745579   -3.25361108877201
H          -6.03822039519355    5.08611474936410   -3.30551224228408
H          -7.86648041635615    6.97759291699238   -4.92116050793369
H          -4.39379055167248    5.57597614802442   -4.46474503142799
H          -3.83327026057544    7.23999465782264   -4.61771399020234
H          -3.95238463007876    6.22568061660041   -6.04848253019822
H          -5.19336781118493    8.75102907975105   -6.31645727951344
H          -6.94353400021741    8.44620027980152   -6.37491705840143
H          -6.38923325538008    6.55775713611138   -7.90038195163353
H          -4.12580436536089    8.40255885383171   -8.29688600500873
H          -5.17519921387968    6.00050074025326   -9.90746785894184
H          -2.88814862626612    8.00563043756459  -10.39546473173520
H          -1.61957722262814    7.54952674905224  -12.63421987564376
H          -1.58842555434044    5.87598424757522  -14.59122589942514
H          -2.00568254003476    4.09589762674767  -16.11198785985391
H          -2.81176775415475    1.93244893325978  -17.26267898394059
H          -4.46884138675814   -0.03340807522006  -16.92248769358828
H          -6.13691433015304    0.24634304330483  -14.34590119275500
H          -7.94705906611523   -6.51435257787939  -17.65473649365815
H          -9.31839212017699   -6.31940444661787  -15.58902531994294
