123
 SCF done       -226.334297953892          0.000690848999
C          -0.86768557401274    1.51930762887511    1.42084731554227
C          -0.46399410524317    0.59787609998392    0.48723851139372
C           0.71932276744176   -0.16352167857896    0.58849988196969
N           1.66621807196931   -0.81225944799290    0.61075224674691
C          -1.15373153946665    0.26414898884382   -0.69642100174699
N          -1.65021588749542   -0.06364500263456   -1.67981451749088
C          -0.14529491155169    1.84230211854367    2.64790421193500
C          -0.88775501557855    2.80800582587253    3.37083721103516
C          -0.46965359562259    3.31929119778835    4.57471582242038
C           0.74379368991640    2.85533935588099    5.09357841317910
C           1.48008820060571    1.89070334004379    4.36569659173702
C           1.05545085410691    1.37380522700875    3.14749178119279
S           2.94882162802589    1.45589335272119    5.18565925097423
C           2.55924762296192    2.56018922529906    6.47725059110049
C           1.38995234950099    3.22180331449228    6.30552924984831
Br          3.73216355273985    2.73707274042652    7.92978571059523
C          -2.11722645325181    3.13122089083579    2.62411554876176
O          -2.98204767094582    3.91504309322618    2.97205277130136
C          -2.07229030764717    2.32750109007309    1.39765012577053
C          -2.99119531123575    2.35108617731394    0.37857058949046
C          -4.18901936944838    3.06484591615412    0.24275203837209
S          -4.88043498637737    4.14361770520266    1.42321353748532
C          -6.24371459276776    4.43753549208009    0.40054415417811
C          -6.15528711349850    3.76599770255347   -0.81599018901282
C          -5.00047618903981    2.99051123264532   -0.90436829221498
C          -4.65112137311977    2.20390724597654   -2.12771915901873
C          -5.82146648452785    2.12647630969561   -3.10471650865523
C          -6.45801729381585    3.50899255683482   -3.27994140118833
O          -7.48565160141027    3.53879468397014   -4.24914361531037
C          -7.05005148403372    3.51158804790100   -5.58432392758471
C          -7.10848308177078    3.91108645661048   -1.95533278136445
C          -7.26260610718131    5.32507644357745    0.88911751972723
C          -8.64500638149215    5.11383149135551    0.72824441470652
C          -9.62672755019187    6.03396931689205    1.26144673794420
N         -10.92530705291697    5.84432090569809    0.96744511191166
C         -11.29555014359190    4.77638245187501    0.31401834059788
C         -10.33190069835712    3.77330253738616   -0.05183725263678
N          -9.05650308171693    3.97932344604188    0.13608819660830
C         -10.75680645837901    2.55179650772674   -0.63178680506666
N         -11.12958981879000    1.57438597038444   -1.09826494424270
C         -12.66213417244605    4.60500443916535   -0.02000901324279
N         -13.75991345408353    4.42489421705727   -0.29287347065785
C          -9.26927909696074    7.14628891422857    2.05082518188028
C          -7.88780802688105    7.33987963956074    2.23277322317270
C          -6.90680598538135    6.44481221008822    1.66309697958832
N          -5.66027602006030    6.81856489528605    1.96342561132172
S          -5.71083734291801    8.12003162837633    2.88735981323985
N          -7.29971770540293    8.30749227763250    2.94965955832681
C         -10.24632917939011    8.02986332702216    2.66342632944062
C          -9.93995401494298    9.39040952565181    2.81744380124672
C         -10.82840070631222   10.22103793708001    3.45373125681714
C         -12.07159229302174    9.72506042602716    3.88699458566843
C         -12.39235252175540    8.38397275464260    3.72438096624253
C         -11.47410130421931    7.54366138391646    3.13074857816828
C         -12.82515143134513   10.81312130628764    4.46482674286607
C         -12.04175251226232   11.98076467968872    4.40874432876620
C         -10.70978917972521   11.70360310546182    3.74203412094800
C          -9.58861517552959   12.01813423461065    4.75524910956913
C          -8.16517643004572   11.72279221010274    4.29903202823858
C         -10.56398336073079   12.44060954036803    2.39355870834946
C         -10.55575632712102   13.96240040088333    2.45864758147214
C         -12.50841303941501   13.14283090227602    4.97097324567102
C         -13.79957429823345   13.18824602594924    5.52529672944781
C         -14.57825413747385   12.02184663582820    5.53901537727911
C         -14.09455514257690   10.83657238437000    5.02960578856262
C         -14.26864527421680   14.45460365202377    6.01804078502044
C         -15.52430368489627   14.76180595312052    6.41842019687530
C         -15.93384381907638   16.03644845943052    6.89114833781091
C         -15.40468953236658   17.27691665650748    6.69224755068641
C         -14.41929653506286   17.82036453228625    5.78056476843173
C         -14.10687627634680   17.36555783545586    4.52486109812252
C         -13.17424772660267   17.98538428083807    3.66882655776271
N         -12.40467501388276   18.42520712385197    2.93898922086486
C         -14.71381157434266   16.25524782197808    3.90525887705434
N         -15.17840417675340   15.37421712018755    3.33495271908888
C         -13.98114023799645   19.10206004191419    6.32836881163659
C         -14.82915334222023   19.45140715310424    7.40861577291533
C         -15.80377505073829   18.36509579409764    7.62822892779865
O         -16.71134615843284   18.33443110013211    8.42734826524423
C         -14.69408002904130   20.62857027777289    8.10354073888811
C         -13.66648779822673   21.49745788480885    7.72161462916978
C         -12.81463656089438   21.13237424977732    6.65179839255888
C         -12.95599480739840   19.94525736071567    5.94375552741251
S         -11.60636201196761   22.34499847090401    6.35454159422247
C         -12.25603613528154   23.31550803063679    7.64958303589003
C         -13.32107966511115   22.76079038560351    8.27532685815452
Br        -11.46434841131645   24.96700886953136    8.05379187184306
H          -1.05981031333463    4.05369116204490    5.10000515934215
H           1.65476449804134    0.64142984120255    2.63346707814627
H           0.99819431970310    3.93865283830042    7.00381418777556
H          -2.76878007945207    1.72210746209087   -0.47263111874894
H          -4.33939482694228    1.19193710435518   -1.85936458757187
H          -3.79652456348224    2.68268014223051   -2.61840499351549
H          -6.58440603506335    1.44206075169996   -2.73048316100932
H          -5.46356147102230    1.74449912236928   -4.06104109027257
H          -5.67376613909361    4.23697003435163   -3.55404902464422
H          -7.93649553985746    3.67231621334448   -6.19471702460051
H          -6.60127719288243    2.54979552355333   -5.85450799982084
H          -6.32279093674322    4.30958571966294   -5.78057535713817
H          -7.97301086397601    3.25986159731142   -1.80963384345543
H          -7.47882633217660    4.93620931107739   -2.01637683950301
H          -9.01636182635760    9.76563167030510    2.41110395104289
H         -13.34092870054588    7.99903515162470    4.06623654695804
H         -11.69736409049262    6.49318297626892    3.03797435153093
H          -9.79440795873570   11.43909495127476    5.65983471957961
H          -9.66385312441972   13.07342763739940    5.02318292707227
H          -8.01621365780030   10.65915091893652    4.13829329229421
H          -7.47025239767595   12.04684914131798    5.07138125246399
H          -7.92353648968026   12.25903375500729    3.38522184608727
H         -11.39267417291375   12.12323083825372    1.75517387397063
H          -9.64171886717067   12.09702003111219    1.92257499331437
H         -11.52165814239325   14.34519883156648    2.77665957283347
H         -10.35244397314874   14.36255779924678    1.46776196818842
H          -9.78626101698519   14.32985763640623    3.13259241872365
H         -11.90485508811685   14.03806751937181    4.98407797500053
H         -15.56506840898443   12.04476487847784    5.97326092643673
H         -14.69330584389047    9.93926180414400    5.06785816013569
H         -13.51252437712127   15.22938288116445    6.07179693901122
H         -16.27941303285292   13.98955971988238    6.45453010554972
H         -16.77917771432459   16.03322461750882    7.57469056052294
H         -15.36041810833670   20.87241765130834    8.91592973829384
H         -12.27912011666767   19.70875711273046    5.13958677051394
H         -13.84314823830695   23.22162163837482    9.09384854397128
