93
 SCF done       -190.676157969858          0.000927208804
C         -11.48701207466815    6.77213717907416    1.41704189994439
C         -12.67577039034821    7.37528541136159    1.12308082711268
C         -13.51122287223513    7.99422169876515    2.07957062568591
N         -14.22836882559903    8.50917872938049    2.81192715240332
C         -13.23614079281064    7.46555706163388   -0.17104791958109
N         -13.75599968838751    7.57565202885531   -1.18758742615982
C         -10.88357044731772    6.65202373632165    2.73583409896769
C          -9.63948590493561    5.97885443166496    2.62523799320838
C          -8.84107737680428    5.71630552505336    3.71317549493858
C          -9.28961538765157    6.13207886613984    4.97025837524014
C         -10.53356657864926    6.80323653468888    5.07207810853355
C         -11.33931029907793    7.07181909344058    3.97439705800952
S         -10.89755643937878    7.22743636849602    6.71679635913311
C          -9.39716435201682    6.50849602635905    7.23875797328831
C          -8.65907591317336    5.97733024819880    6.23446484428229
Br         -8.94777328741996    6.52522438019266    9.05814910301991
C          -9.38530569402983    5.63985840414306    1.21440589163717
O          -8.40591221620685    5.10908005903242    0.74700488522919
C         -10.58742878024661    6.11953322253738    0.46601908199682
C         -10.72784517114797    5.93221991028318   -0.85313875602037
C          -9.72158898224347    5.18194713283714   -1.62848787859553
N          -9.80975462905205    3.85619147329315   -1.58565858566658
C          -8.89157517636062    3.18746424128390   -2.26257908401305
C          -7.89182866303695    3.81296677493234   -2.98604653428012
C          -7.90987447707870    5.21209949776102   -3.00421945303067
N          -8.84346394898207    5.88120139367913   -2.32068879214451
C          -6.97205063997132    6.05367540734598   -3.72243994181765
C          -5.90695110876251    5.60047213168260   -4.40519166311441
C          -4.92589446066996    6.37366041199098   -5.10612331510382
S          -3.92125719772280    5.53317201525087   -6.24521032584409
C          -3.02140381353038    6.96105528712094   -6.63146287932281
C          -3.49389385018344    8.03852314192499   -5.90180775958247
C          -4.56303596389658    7.70762575786117   -5.03903558633103
C          -5.23055242719203    8.72509408565356   -4.16129328577199
F          -6.47246328771264    9.04357865947435   -4.66945305265738
C          -4.36854715986570    9.98806034347890   -4.07432223182695
F          -5.03078659173498   10.97259494850729   -3.39093024349264
C          -3.93580943590918   10.46989789412508   -5.45936714395877
F          -4.99233159450504   10.60992879643987   -6.31621820867823
C          -2.96753595755253    9.43433833259713   -6.04178520359324
F          -1.76837637819165    9.57587195585883   -5.35702942132473
C          -1.98838639665159    6.86021703092754   -7.61658232084570
C          -0.93191273778647    7.67519620117782   -7.77270675571818
C           0.04411129328817    7.46242636523950   -8.82449221671726
N          -0.16936470703531    6.48020137109248   -9.70663696798346
C           0.72829277455279    6.32221854818308  -10.65842951784994
C           1.85713515203273    7.12232868410297  -10.75922804358197
C           2.00967843092007    8.11314802379982   -9.78219448313642
N           1.09149233900006    8.27693155995370   -8.82974005246204
C           3.16628893268939    8.98517793274558   -9.76305277078462
C           3.41918958662256    9.81110425279564   -8.73014875569680
C           4.55237737859908   10.67067596257821   -8.66702916294979
C           5.02776009433758   11.29535800995284   -7.56130854792526
C           4.67047176212994   11.14967631268216   -6.16239295456049
C           4.23809716184127   10.00093676971454   -5.55649670208710
C           3.95624750064343    9.90449100734344   -4.17707205787905
N           3.70366032058024    9.78677501138139   -3.06423938146301
C           4.15545929013050    8.74956455982799   -6.20707660337644
N           4.15078611110192    7.69833069000411   -6.66637033369255
C           5.08450238876954   12.37250207775710   -5.48477505649576
C           5.88566072625552   13.13684286995272   -6.37272630296306
C           5.95656003030573   12.45578294388775   -7.68059246089659
O           6.58354974477318   12.78351696306273   -8.65966007508889
C           6.46400494579404   14.32728431657400   -6.00271417762520
C           6.23415107363840   14.78925479849111   -4.70275023473050
C           5.42213292031979   14.02517432284451   -3.82900866602306
C           4.84271668892171   12.81791502782700   -4.19895162472690
S           5.26268843488702   14.78605810517892   -2.27612830326409
C           6.27817670028787   16.09946788996224   -2.81023534300321
C           6.71347282707289   15.97755108100417   -4.08705962380404
Br          6.66464080614713   17.50688901672713   -1.63362622713492
H          -7.89960297390215    5.20292404392243    3.59607823619566
H         -12.27749590425161    7.58512580251088    4.10355595080568
H          -7.70925679448816    5.49558300322919    6.37822151087515
H         -11.57858295744792    6.30126565894197   -1.40815200425743
H          -8.97067272749613    2.10887435661460   -2.21558089119904
H          -7.15093673449605    3.23919155860307   -3.51607673937152
H          -7.22196652275050    7.10062172358399   -3.67267677021520
H          -5.74041322778330    4.53324288209327   -4.47949601856254
H          -5.41284570148434    8.33012000113039   -3.15208814969203
H          -3.45955602610714    9.76518582004098   -3.49799586458718
H          -3.45161811634616   11.45162190794594   -5.38285724262301
H          -2.75159916587318    9.66534918578930   -7.09307792257173
H          -2.06216697577513    6.01065826034542   -8.28378079893721
H          -0.70989826082492    8.49767841346212   -7.11375201060964
H           0.53295206960134    5.52390289717654  -11.36362484316689
H           2.58607192781332    6.98279779766253  -11.54037267405814
H           3.85489231480361    8.90324793140611  -10.59282888852108
H           2.70949195068625    9.82312650127814   -7.91408795366584
H           5.05378661583634   10.90907160832322   -9.59921898642068
H           7.07571505966189   14.88496346028623   -6.69433642708538
H           4.22682338021172   12.27186106203400   -3.50352356394055
H           7.34623543271089   16.69534981822472   -4.57618730461960
