85
 SCF done       -176.001232294631          0.000361291498
C          -4.10076015823392    2.82752894048458   -5.50828758364002
C          -3.14279580632014    3.68730688705924   -5.98750461146490
C          -2.41069475527427    3.47274138203369   -7.17163018970584
N          -1.79103353107320    3.35372182953425   -8.13143795996168
C          -2.74671595797397    4.88153016362989   -5.35209577016303
N          -2.35977340405468    5.85643290424193   -4.88355716616319
C          -4.46502646551966    1.54397642080654   -6.09965594206690
C          -5.41459844954052    0.91372218521824   -5.25980299443259
C          -5.95580685794323   -0.31493429242798   -5.54555756873369
C          -5.53492039724463   -0.95753612488044   -6.71530879303253
C          -4.58778206329519   -0.31949764408869   -7.54907131130892
C          -4.04294129881896    0.92657561532893   -7.26146457403590
S          -4.21459257021112   -1.28368384395749   -8.94642920940471
C          -5.32063915834476   -2.51418243455750   -8.39665789726611
C          -5.93803125949804   -2.22122377790737   -7.22800198567002
Br         -5.55668692229056   -4.07040591292711   -9.41735537705953
C          -5.70900527140183    1.79021010560063   -4.10725619329432
O          -6.55796181515479    1.59344928132452   -3.25999161825426
C          -4.86418817418003    2.98694971094136   -4.29401490871091
C          -4.97252295211466    4.13436445363471   -3.54511529233126
C          -5.54837938056733    4.21014158711861   -2.26909661603106
S          -6.34124828228289    5.67026040646923   -1.73745652651876
C          -6.84167861338007    4.92888953619376   -0.24783525767253
C          -6.34459134804867    3.62818791534149   -0.14953697173340
C          -5.58941381211060    3.23348795728951   -1.26365273480693
O          -4.90524988405236    2.09003690151183   -1.43704835355699
S          -4.55098790609581    1.11845533767799   -0.13548927990948
C          -6.23153938405990    1.02227913196771    0.53025862781449
S          -6.70354693266108    2.62584333699349    1.24773552708960
C          -7.67520590646633    5.56633600974099    0.68897408407850
C          -8.12362331902151    6.84563125067113    0.55363771141255
C          -9.01385691194474    7.50655335764231    1.42089386806885
S          -9.54245864728719    9.11698636130450    1.04962378944960
C         -10.59343972337121    9.18396910217293    2.44382354332976
C         -10.52819260584850    7.97815412642653    3.16238950377572
C          -9.63378519978949    7.05506088633045    2.59313806304000
O          -9.37535278827885    5.80081891926021    3.03300451959108
S          -9.48081042070266    5.47569340006476    4.67324698152262
C         -11.21938490538159    5.90898821157997    4.84676274740019
S         -11.47303017518659    7.69734745765010    4.61737358050051
C         -11.33950975091633   10.35506086666372    2.62559394559512
C         -12.24790284050825   10.61553119080355    3.62151095818944
C         -12.98340954406018   11.79619336314773    3.70558072184785
C         -13.94173970521815   12.01681382471892    4.67617527891464
C         -14.75817708579747   13.15472298203634    4.85008057767116
C         -15.63713956377671   13.05824940548498    5.89275263322359
C         -15.55123764273431   11.83731657645878    6.58963262901937
S         -14.32052144012654   10.81462195157301    5.89240907135598
C         -16.28356492525549   11.38924652241331    7.67942114710912
C         -17.32524587312916   12.01911765783568    8.38841733977809
C         -17.82100923342403   11.26616493365780    9.41236604781161
C         -17.19371216662884   10.00293007726349    9.56575397988325
S         -15.94942543333374    9.81264667379346    8.34869083088686
C         -17.50395627180306    9.07096561562145   10.52656614556596
C         -16.91024521198901    7.81121884711277   10.72969005807396
S         -17.44785865553981    6.80863631219335   12.07417993924704
C         -16.35521782085527    5.52537803987066   11.73527680737822
C         -15.59399282840996    5.82979080681546   10.63190259331683
C         -15.91107833615017    7.10950727971319   10.07287875899129
O         -15.14354195074703    7.35277808975500    8.99148434281740
C         -14.34411107751511    6.26438120805138    8.85239206162073
N         -13.43680700042800    6.26596793626459    7.78214063702703
O         -12.71252606639200    5.28422928236253    7.66892721763777
O         -13.41602143515978    7.22263718167723    7.03237160752425
C         -14.56168297475038    5.30448119430079    9.80927666545282
H          -6.68024834441949   -0.76953255773166   -4.88805130686277
H          -3.32925872066531    1.37503675027604   -7.93217104968031
H          -6.64944506847916   -2.86714900284449   -6.74654981714126
H          -4.64983873128181    5.07496779469759   -3.97355784157594
H          -6.91139692945593    0.75850481651548   -0.27823422938305
H          -6.24513234581094    0.28748710498396    1.32849770833742
H          -7.97188014721626    4.97142502136150    1.54054662686845
H          -7.79077458955468    7.42091900033100   -0.30180111169817
H         -11.80398711738205    5.35564577887737    4.11433612948644
H         -11.53285453075683    5.66929186984171    5.86038745486778
H         -11.17797147446500   11.11816808965580    1.87385280631613
H         -12.43192409173142    9.87161297877322    4.38273342303808
H         -12.81494708164622   12.57718832227059    2.97568232716231
H         -14.67732962488797   14.00984467419556    4.20216269813017
H         -16.33553891175681   13.82703569605285    6.17130250272794
H         -17.68228552307402   12.99987965477676    8.12951826907637
H         -18.61770965227095   11.57627088053957   10.06520570219927
H         -18.29212189085885    9.33045748740222   11.22053440632103
H         -16.34201899763815    4.65157159407564   12.35157956016200
H         -14.04903797718661    4.36891918391729    9.89315388575117
