133
 SCF done       -207.719556354696          0.000897465081
C           0.30904945421407    4.52472491616870   -6.37986009614942
C           0.88268042070800    3.66129798080556   -5.48051650792953
C           2.07691045392159    2.95134889713309   -5.72001066906863
N           3.04332531804554    2.34562903761561   -5.85478718825967
C           0.36414946165341    3.33114398772975   -4.21100394077477
N           0.01160554832452    2.98927478360142   -3.17216922866539
C           0.80462390833487    4.78912106754098   -7.72417961383921
C          -0.12539021036269    5.62114501345007   -8.39059775090162
C           0.05608506872836    6.05162153662281   -9.68197321281076
C           1.21389344690647    5.63951946048739  -10.35012555578408
C           2.14020223586090    4.81017681498464   -9.67514628074503
C           1.95616777470315    4.37543278221077   -8.36865806082491
S           3.50410092909581    4.42440851558400  -10.68161854306369
C           2.81853225087676    5.36834174507976  -11.97756733598163
C           1.63099156873149    5.94361730316247  -11.67521289301988
Br          3.73683059538277    5.50566229867250  -13.60775136257042
C          -1.25535946713760    5.92935540377416   -7.48750301773098
O          -2.20316755556146    6.63232159496973   -7.76442034301887
C          -0.92638520359379    5.26883586412885   -6.20042660439748
C          -1.52396948563501    5.47080189162094   -4.98925375301462
C          -2.76428125082759    6.09946132308537   -4.65625949297682
C          -2.88676286784442    6.63510091037533   -3.35618755717004
C          -4.05119778156009    7.24572115551829   -2.97850143486317
C          -5.14374787768698    7.31103468820716   -3.86653430096211
C          -5.05063419363198    6.74764125999867   -5.13447610565329
C          -3.86954215086049    6.15384656445584   -5.52195953772857
C          -6.23458044511105    7.97492101855405   -3.20043871516855
C          -5.82506240709917    8.32664737550554   -1.89811461968595
C          -4.37878210989928    7.94542909132548   -1.67649894128149
C          -4.19699047948996    7.02614257524149   -0.46009278696103
C          -4.99278230651491    5.73221110409144   -0.58767565407021
C          -3.46382114285832    9.19103583079291   -1.59430144953528
C          -3.75105329541605   10.15541682040597   -0.45113176796947
C          -6.70503258644294    8.91462316032477   -1.02647775390611
C          -8.01123196381016    9.22333167757085   -1.45033664134234
C          -8.39414791236089    8.87757553568552   -2.75915383101875
C          -7.52843747715345    8.25240019349490   -3.62764044276165
C          -8.95439305969886    9.90294310373906   -0.61181497776947
C          -8.72723635751784   10.38687536383365    0.63821060862448
C          -9.67469258530241   11.12455268441253    1.37089732133339
C          -9.44048831657786   11.67326712510360    2.60425546919081
C         -10.32056273839215   12.50056166522021    3.34827773169172
C          -9.80678131915033   12.95819250201833    4.52008803047201
C          -8.49288629337709   12.50542880756822    4.79125612618352
S          -7.93357436664668   11.47094503316306    3.48887863388400
C          -7.71238681202862   12.80130440144724    5.88422409148170
C          -8.01979727653810   13.70056046454436    6.94085032517290
C          -7.04345002328768   13.82124808777733    7.86938880595317
C          -5.89316359689387   13.00694348700287    7.63170718470680
S          -6.13397451727079   12.08688961099203    6.13917925586744
C          -4.78715299053171   12.93599211321706    8.40197156694195
C          -3.64268348553771   12.03501661172595    8.09715953879733
C          -3.97625623600721   10.55036542606492    8.21615370774461
C          -4.31969611876649   10.32263086867589    9.71976230500296
C          -4.49342202709189   11.56968904011737   10.59409437188596
C          -5.66851184221950   11.76631108608375   11.19447657834941
O          -3.49479315005131   12.43639516526119   11.00405208927818
C          -2.47712409154824   13.00975980672287   10.15429336996070
C          -2.37401791930921   12.05139276001557    8.99514190060327
C          -1.26767540475504   11.75384784258304    8.03379990506908
C          -1.50805384062801   10.61876646710008    7.38351009171517
C          -2.73442993509069    9.76402049450831    7.67034717463262
C          -3.12558695348830    8.99259164333171    6.40878634266649
C          -1.15935536560909   13.12936505433902   10.92615345971672
C          -1.30969918542353   13.79995713835153   12.29275101462447
C          -1.72983489598644   12.80572394750673   13.38956461291022
C          -0.61587900247534   11.88992372938305   13.75577322094264
C          -0.47511517769126   10.62152571064560   13.33513848592133
C           0.58196770221993    9.71179253148756   13.67369312249562
C           0.47456330724843    8.48905110559219   13.11458659135707
C          -0.66628345130998    8.32439631370927   12.27439065956216
S          -1.61228544104001    9.80336274338392   12.24863832999875
C          -1.01673366939216    7.21359349594491   11.55893753192216
C          -0.34113931394224    5.95908520077756   11.51016059355117
C          -0.92047138918262    5.04038694734801   10.71018111025620
C          -2.11218650044765    5.48997035489977   10.04634181946514
S          -2.43832500018236    7.16275748686140   10.52395491330172
C          -2.88886229462933    4.80804742212391    9.19661826057071
H          -0.67258494880274    6.68612427859430  -10.16168377468878
H           2.69467467647610    3.74961515972922   -7.89658391340017
H           1.07093742742855    6.55811908726023  -12.35614168382301
H          -0.95967032345649    5.14380454314093   -4.12245927583558
H          -2.04663595188706    6.57172362595027   -2.67918882814447
H          -5.89340920205461    6.77156242765121   -5.80850603548740
H          -3.80059444223826    5.69951691716259   -6.49531722665705
H          -4.51927571233794    7.55411719561423    0.43819914692998
H          -3.13629194519249    6.79121703968556   -0.35001633034686
H          -6.05449633748254    5.94478314383757   -0.69428784799267
H          -4.85181197469938    5.11724757152364    0.29805613464377
H          -4.66813332133429    5.16317626416963   -1.45595884817694
H          -3.55208196506412    9.73355521114364   -2.53951467186391
H          -2.43305143512020    8.83841100488275   -1.51267290123040
H          -4.73356101726177   10.60604224883502   -0.56028386171225
H          -3.01210905899427   10.95403106913763   -0.46191405520262
H          -3.69353244181235    9.65822400575595    0.51342523109876
H          -6.40779132690943    9.13451651266020   -0.01415252548210
H          -9.39923846902701    9.10959706868592   -3.08219292421035
H          -7.84743767306010    7.98269912771899   -4.62342903406700
H          -9.93185363476049   10.07310291779511   -1.04757454828906
H          -7.76786958268147   10.24290067077319    1.11683619940907
H         -10.64345759653134   11.30519786629158    0.92322795756683
H         -11.30326250586124   12.73825808325994    2.98016632449606
H         -10.33516080150093   13.60085923020608    5.20139250729629
H          -8.94965535948065   14.24011644891914    6.96542765664404
H          -7.09542883063545   14.45694774375790    8.73541088287589
H          -4.74778229135202   13.61769022367168    9.23531056585844
H          -3.35412736137423   12.25177791620876    7.05913385194332
H          -4.84414124299644   10.28183469974513    7.61179262553626
H          -3.58117123058499    9.67320370015656   10.19621907620802
H          -5.27026912903341    9.79247152607917    9.77899021314743
H          -6.49639504523773   11.09725501700048   11.05971298126586
H          -5.81413955687811   12.59890895893654   11.85992121534422
H          -2.80412098748574   14.02271075137625    9.87403587220535
H          -2.36537015905750   11.12261408111524    9.57168433120582
H          -0.41293663382957   12.38819907728404    7.87122789665953
H          -0.83742120737723   10.23908470218442    6.62792032913581
H          -2.43603251945639    9.02631402159646    8.42692333828423
H          -3.44957188659962    9.67986664028149    5.62993600694819
H          -3.93972076406386    8.30440138932846    6.62243754754739
H          -2.28243799097917    8.41641279277139    6.03481059293710
H          -0.72161936838450   12.13913178914580   11.05304488993899
H          -0.48333556585525   13.71637834904409   10.30082773074371
H          -2.06005399704729   14.58904276372895   12.22636719203090
H          -0.36032225464286   14.25981430618322   12.57742905044356
H          -2.58764768859576   12.23680333888439   13.03253020572585
H          -2.02541709747090   13.37392607718414   14.27515112683017
H           0.15735036988760   12.29354419620461   14.39700808489925
H           1.37667622931843   10.01781948855879   14.33140898191689
H           1.17653800200140    7.68864481053876   13.26778772705604
H           0.55465954036950    5.78657858862426   12.08038751450476
H          -0.55360168983672    4.04158354242159   10.55412399118285
H          -2.65356711706729    3.79235240331499    8.93447963851396
H          -3.76372493570384    5.24609635683040    8.75259537971745
