85
 SCF done       -173.740684076012          0.000949951389
C          -4.61617376027307   -0.46874735432170   -3.31878910622736
C          -3.81322068518792   -1.37630122980572   -2.67275854373719
C          -2.96842521218281   -2.29728027268164   -3.32768551417118
N          -2.26987121861942   -3.08299905258873   -3.78867164840072
C          -3.74265820168292   -1.57899061881777   -1.28311718773723
N          -3.63229682388406   -1.84100844813421   -0.16832441586193
C          -4.70699108814304   -0.32100851031532   -4.76546885914841
C          -5.76329822254949    0.57245678203007   -5.06400965344125
C          -6.10422162280286    0.91342461089577   -6.34949188250631
C          -5.35565170824322    0.35687770247458   -7.39254449991654
C          -4.29402903595917   -0.52795145035149   -7.08434156220070
C          -3.95674561828790   -0.88054063555486   -5.78392831260180
S          -3.49496010974017   -1.09207529000959   -8.52033081717362
C          -4.58169326675144   -0.14579822948532   -9.50162029339560
C          -5.49715902985217    0.55736118301123   -8.79215438654734
Br         -4.40488914772536   -0.17411345133646  -11.36789381715016
C          -6.38341719299922    1.04240029076537   -3.80613578815958
O          -7.38154755487139    1.71922125350845   -3.71639626203166
C          -5.56006741080504    0.45290850597872   -2.71730605049397
C          -5.67044336346412    0.69184036166341   -1.37488261466229
C          -6.48913956263483    1.63548066126109   -0.71968876386058
O          -7.09159623149685    2.65619569551231   -1.39275172015544
C          -7.67556367034745    3.45827683814560   -0.54073954976772
C          -7.49549531423360    3.00887682494665    0.75148178317224
N          -7.95884871011903    3.62576976227554    1.92699377962883
O          -8.67640963476393    4.59421732751625    1.81718775556554
O          -7.59161680531328    3.14462983121056    2.99115787407765
C          -6.73296168549700    1.79448713334308    0.65741948255787
N          -6.38584403052916    1.06817910251403    1.73791679636611
C          -6.03029050985281   -0.26085022669318    1.86424244660323
C          -5.42323395428709   -0.69447142133486    3.03689423680247
N          -5.06058486507850   -1.94090690559481    3.29526588196718
C          -5.24312727364225   -2.91831962348037    2.42926631861243
C          -5.94242242133908   -2.63669626352374    1.22280270925732
C          -6.34594426108837   -1.28107982437472    0.94087466117091
N          -7.04762660009410   -1.18875724607497   -0.19076937374162
S          -7.19132451074594   -2.65974950884164   -0.82640030615206
N          -6.38242049469912   -3.47668759730304    0.28814320281870
C          -4.75254982895204   -4.21574143421271    2.85021574835485
C          -4.23298879251000   -5.19570883534855    2.10360710268910
C          -4.05218480472550   -5.15621918487434    0.62022657482155
C          -3.73203320888853   -6.44808653423271    2.77427951870115
N          -4.49693114616094   -7.59703441839218    2.33682914975331
C          -4.64520992903226   -8.70340586424062    3.05936428131920
C          -5.41392416721621   -9.77257397225322    2.68490539894645
C          -5.55192867868684  -10.96830564902541    3.39892382976350
C          -5.20103481982553  -11.32696656179721    4.68212895584566
C          -4.88516038228764  -10.60672045128123    5.88431958139899
C          -5.28583456309203   -9.33675943736815    6.24006958470318
C          -5.00740209479645   -8.73649053868385    7.48207056542218
N          -4.79433533328125   -8.17901337916420    8.46402795044578
C          -6.06778135295200   -8.50081144227973    5.42804854677393
N          -6.68584232842146   -7.77357692697936    4.78662858618273
C          -4.26022142989737  -11.55064465544632    6.81340752361197
C          -4.38508844571231  -12.85677631101528    6.28290906752716
C          -5.04806439065317  -12.77305537666400    4.96341274121970
O          -5.36580463725629  -13.69511955503084    4.24231543434613
C          -3.91508508753694  -13.96822896428936    6.93641479791776
C          -3.27592889709192  -13.77926400998853    8.16749653719385
C          -3.14234168864221  -12.46924866131839    8.68113908889895
C          -3.62984908594645  -11.34486483837506    8.02427848058713
S          -2.30449725275551  -12.46167934992240   10.20434935562430
C          -2.15028805967295  -14.19684115613983   10.13134903731464
C          -2.69692361016258  -14.75468001630737    9.02592327616014
Br         -1.27919448630247  -15.10737193677208   11.52192461642270
H          -6.91819116885710    1.59366562421023   -6.54481269220062
H          -3.13787092884238   -1.55597822113881   -5.60121112736184
H          -6.24148892862813    1.19211376840904   -9.23702316092096
H          -5.00711728519535    0.15797218891847   -0.71044118451165
H          -8.18743653511306    4.32826108709283   -0.90659541203256
H          -6.55128657175858    1.56276344509563    2.61819581079463
H          -5.20939352343277    0.01677796189262    3.82417434260305
H          -4.75001358531564   -4.31986778666145    3.92710241064050
H          -3.79320984236981   -4.15071621500625    0.29838031859064
H          -4.97405983007774   -5.42900151281675    0.10871539433754
H          -3.26341993496973   -5.83813586031466    0.31059582805691
H          -3.81038377317456   -6.36144888437379    3.86150547531010
H          -2.67295712433210   -6.59654825370934    2.51616446228288
H          -5.07408161961148   -7.47752392347668    1.51710655113498
H          -4.03138015825103   -8.75781870031225    3.94822147860877
H          -5.91469767611393   -9.71989504749729    1.72746594793245
H          -5.93998995452052  -11.80646242488196    2.82618859888479
H          -4.03250211831433  -14.95317478072295    6.51261323122291
H          -3.49856235736671  -10.36598404038734    8.45468048133515
H          -2.69202777162617  -15.80961966916389    8.82070191394653
