82
 SCF done       -157.445616430436          0.001967367127
C          -2.54566854665877   -1.37447665464060    2.49756531679364
C          -2.75539300712156   -2.57252785040028    1.85295794088369
C          -1.72295201483134   -3.39378409517963    1.36019338458789
N          -0.92545821506133   -4.10389604109314    0.93730579592236
C          -4.01060957724193   -3.17119694450218    1.62960642828167
N          -4.98964482209784   -3.73840174519841    1.42707884109526
C          -1.23664339013198   -0.80430982799830    2.81087334324640
C          -1.42700069641309    0.36833431100946    3.58197515111696
C          -0.38226848211593    1.12955764148191    4.04356101019738
C           0.91679827467571    0.71674956878924    3.72578196081996
C           1.09716698851840   -0.45196239134040    2.95051951632867
C           0.03858379062422   -1.22420096799834    2.48562125857266
S           2.78098399343322   -0.77880800789585    2.66925859754683
C           3.21283898596126    0.63920225534150    3.58743448554878
C           2.15332510430628    1.32413719756079    4.07866665569268
Br          5.02243303519291    1.08203167017573    3.81015181129540
C          -2.87568535414734    0.59843351494262    3.76901791929255
O          -3.38364768319856    1.50822469761055    4.39549862189827
C          -3.54799371218327   -0.49082333427743    3.03457352296902
C          -4.91291854357890   -0.59028966868924    2.85543915766652
C          -5.85867850602776    0.26021418165421    3.41923528898154
C          -7.21347669876907    0.14131532701481    3.17719136557838
C          -8.24541461093619    0.92754114054756    3.73905374960926
C          -9.49861738113168    0.58857089184357    3.32031017507525
C          -9.51560372717329   -0.47821343669700    2.39654809851903
S          -7.89039730174575   -1.05058769171771    2.08910476474456
C         -10.60941376240856   -1.05297594839168    1.77556136807125
C         -11.97784948548543   -0.75164108178491    1.96759948134539
C         -12.81426575283003   -1.53007007607056    1.23215743588276
C         -12.16016871170391   -2.51180833333986    0.43598270801801
S         -10.42205505496865   -2.33149051355577    0.60151167575219
C         -12.82741161954964   -3.40224213834553   -0.36189845090608
C         -12.38726137957934   -4.48831046439507   -1.14955680712901
S         -13.52012600116562   -4.94358802905526   -2.42156802608855
C         -12.44659194587875   -6.12644673818275   -3.03870679040705
C         -11.31450932462599   -6.21755123877257   -2.29968903923461
C         -11.27221780217456   -5.31930409951583   -1.20399364638622
S          -9.84891523355340   -5.47710162193461   -0.18169194817193
C         -10.31346710463675   -5.13851714463541    1.46605989626072
C         -11.56439231876549   -5.08168718741622    1.92237088300838
N         -11.88484078662460   -4.65907871271318    3.20282362903236
C         -13.04822561650546   -4.01968674427080    3.50527453082902
S         -13.01718820208867   -2.70240743848178    4.63725980734416
C         -14.68890761411997   -2.37749372616505    4.28795244005663
N         -15.28475184727109   -1.30474977704402    4.94434067099215
O         -16.45480902447607   -1.06350609825766    4.70072783762970
O         -14.57439993525140   -0.66589293237634    5.70774834472658
C         -15.22319376997205   -3.24047933774925    3.36550914350479
C         -14.30396375147607   -4.20209936256346    2.91777546888010
C         -14.60420472559738   -5.28940182954483    2.00980068922338
C         -15.46849822269745   -5.20606805426674    0.98492359261467
C         -15.72250291405276   -6.24112833082807    0.03165619268998
S         -17.12509244243588   -6.09698908594683   -0.99288468421996
C         -16.76315472698757   -7.57432662006578   -1.78219948032230
C         -15.63245096733359   -8.15130760620952   -1.30436273294157
C         -15.01885555179900   -7.38869607560822   -0.28289517984816
S         -13.51037836163073   -7.85888104533896    0.49989813673298
C         -12.65643238962726   -8.69619223875574   -0.79318454768705
C         -11.54117853502243   -9.37115805432829   -0.57643367522246
H          -0.55960521342291    2.01680482276674    4.63110213063178
H           0.22976443212821   -2.10530750225577    1.89627310846579
H           2.23798641125965    2.22050652560366    4.66571173551637
H          -5.28966783147645   -1.38373428751498    2.22082454333523
H          -5.52803648747982    1.04825214078486    4.08030276439388
H          -8.02820529284958    1.71510106774372    4.43831289825994
H         -10.39953986752253    1.07502461847431    3.64789091148244
H         -12.30188256566477    0.01434278972536    2.64838061967229
H         -13.88720765984097   -1.45373107373826    1.24700108539766
H         -13.89080066113182   -3.20995268515646   -0.44976519401790
H         -12.72128224655186   -6.69157270635105   -3.90729094915152
H         -10.51752820257395   -6.91106023601225   -2.49684601508362
H          -9.44827340229635   -4.94781819270318    2.08191530070918
H         -12.40458166081861   -5.29277229629878    1.28538415981521
H         -11.09216979410846   -4.42870340580116    3.78985133575951
H         -16.25196847543446   -3.18975671353662    3.05807391179809
H         -14.08443659057110   -6.21478467251440    2.20507674451192
H         -16.02783936217833   -4.29329738073436    0.82709464192473
H         -17.41588557192417   -7.94087726716994   -2.54906904408170
H         -15.25840005610064   -9.09695314677383   -1.65337163919987
H         -13.09082432316175   -8.57244868461077   -1.77144339475629
H         -11.11638084787056   -9.46655025090261    0.40721643759467
H         -11.01595774804180   -9.84641752076613   -1.38618917845976
