98
 SCF done       -160.810122443868          0.000852665291
C          -3.40362240009587    3.07490784244388   -1.06654168533637
C          -3.21484882896127    1.71403865864502   -1.15526430802077
C          -1.98268381769273    1.10574894743064   -1.46282799384878
N          -1.01060271317280    0.54519246401293   -1.71017639041852
C          -4.19990922906066    0.72971172773502   -0.94343529043464
N          -4.93354383594364   -0.14069746575157   -0.78273120407813
C          -2.35963589515893    4.07934359041850   -1.26731315058482
C          -2.91785813334059    5.36168829793973   -1.04890706855711
C          -2.18798305467323    6.51804051892091   -1.16584343894318
C          -0.83880963959670    6.40544245909866   -1.52077273036667
C          -0.29052948724230    5.12125462074462   -1.73909974181688
C          -1.02956405075781    3.95000572868982   -1.61685539853759
S           1.39025027960397    5.20941024295606   -2.17546778553653
C           1.33145965018659    6.94810336858717   -2.06015737385278
C           0.11917255968809    7.43927728861044   -1.71234202488671
Br          2.87746794972680    7.95176285884322   -2.41277984446061
C          -4.35010038214070    5.21640537416407   -0.70729032951512
O          -5.12063381557359    6.12340217340804   -0.45440423723978
C          -4.62426529577117    3.76936617593418   -0.75166339189512
C          -5.86831287185411    3.20074435809216   -0.55513402294807
C          -7.03049704579722    3.90195172096987   -0.25626557735898
C          -8.26113595928880    3.28867534128674   -0.11349950813649
C          -9.49062349817030    3.92370405996999    0.17802671461794
C         -10.55688970997923    3.07568671498479    0.23709643501876
C         -10.22120793370137    1.72622915485482   -0.00572956559987
S          -8.50137271905485    1.56803850298562   -0.30064939221716
C         -11.05965055004374    0.62888241846986   -0.04979005745150
C         -12.46776751143215    0.60374809719178    0.12852891440487
C         -13.01566234379263   -0.62824777840812   -0.00983247444995
C         -12.07657216254800   -1.66225955223436   -0.30603872794496
S         -10.45169458472065   -0.97191543516478   -0.37057099148677
C         -12.37621207910996   -2.95551394508159   -0.58787310098253
C         -11.42666340924669   -4.00810310749852   -0.88063812524820
C         -11.70937210068873   -4.98501870142596   -1.85210046213998
C         -12.99860683034348   -4.96297154559407   -2.62633237826723
C         -14.03596498787889   -5.87972503119945   -1.97303678406820
C         -10.77706934648722   -5.99407593433166   -2.08367653883318
C          -9.59478880422404   -6.04574390046948   -1.35156668533175
C          -9.31808509831720   -5.08318462835219   -0.39827833657591
C         -10.22211136585324   -4.06750323032278   -0.17221381505218
C         -10.97909207409306   -7.02939155491779   -3.11887124620263
C         -11.20305622831602   -8.34706400166355   -2.80866406208771
C         -11.32441990983937   -9.34536733352351   -3.79380510562335
C         -11.18650143393233   -9.08137076521593   -5.13361821436222
C         -10.95470114882822   -7.73447278044641   -5.49390667605626
C         -10.86041139200200   -6.70890054421550   -4.48931692818728
N         -10.64526771385341   -5.50440467082313   -5.02336238364736
S         -10.57070829645699   -5.65458625569291   -6.62218009164086
N         -10.80664401324373   -7.23957910393939   -6.72451481656877
C         -11.33084367041888  -10.12852918569535   -6.16447779031054
C         -10.24361013371188  -10.59665803554710   -6.90517210668748
C          -8.87003292880066  -10.07834895938674   -6.56212307332817
C          -8.26090408580758  -10.88942774451789   -5.41565954572037
C         -10.44200544058197  -11.58203269202227   -7.87862407137286
C          -9.27825400582086  -12.08792764348791   -8.69566605029357
C          -9.06526760940369  -11.21554611646548   -9.93572280493863
C         -11.73065076735041  -12.06571113191475   -8.12456898615224
C         -12.03039494422316  -13.12745342681530   -9.15125617229469
C         -11.95234308632638  -14.52354716359372   -8.52872417465125
C         -12.79347367305116  -11.59497843717432   -7.36510934886781
C         -12.60075090887181  -10.64142840678226   -6.38932476680351
H          -2.64277349468982    7.48074535475146   -0.99217858110740
H          -0.56372292235101    2.99558976560391   -1.79578518097124
H          -0.09387713842646    8.48630246976171   -1.59634838513107
H          -5.96030342756218    2.12561635674130   -0.65086017313894
H          -6.98121115324218    4.97464212914526   -0.13831955314719
H          -9.54643376906192    4.98674045401258    0.33099672161778
H         -11.56551288834756    3.38540899828377    0.44460071620484
H         -13.02697613368168    1.49706415478524    0.34115798523385
H         -14.06594707506968   -0.84298097147563    0.08173403764871
H         -13.42695896782227   -3.21312174184940   -0.60544207690964
H         -12.81626375345446   -5.30378926367732   -3.64487611535741
H         -13.38581702893812   -3.94550098621053   -2.68834578432233
H         -13.68406674764162   -6.90854505406643   -1.97622835330256
H         -14.97628655589800   -5.83524831991873   -2.51734616493159
H         -14.21761810121811   -5.58582501534575   -0.94123869364328
H          -8.88975954390942   -6.84068140638611   -1.54627299423627
H          -8.39957562871089   -5.12554777886999    0.16655347264744
H         -10.02097680604179   -3.33584484769252    0.59481843928847
H         -11.29253157156322   -8.63090879392944   -1.76952851795281
H         -11.51606713396873  -10.36155752051409   -3.48007594788549
H          -8.94197658015629   -9.03543092179762   -6.25466559202131
H          -8.20895118153625  -10.11317885992253   -7.42586802076211
H          -8.87616845420295  -10.80204516107392   -4.52272968637689
H          -7.26167590224121  -10.52707041363887   -5.18317724605327
H          -8.19514926416114  -11.94260737216872   -5.68067054269904
H          -9.45670486276177  -13.11615535177965   -9.00777924153623
H          -8.36799214018819  -12.09413316572821   -8.09703145369223
H          -9.95138599762217  -11.22430882672299  -10.56646661645020
H          -8.22160876269866  -11.58143949221507  -10.51757136701287
H          -8.87099851697527  -10.18406711620218   -9.65145249947193
H         -11.34986385188481  -13.06517882396420   -9.99935523907121
H         -13.04236994858585  -12.97075151916360   -9.53185363455226
H         -10.95464620646150  -14.72063126794498   -8.14308014771072
H         -12.19440389155542  -15.28373768302728   -9.26813960753205
H         -12.65508856243391  -14.60645285992821   -7.70295313180661
H         -13.78679426818193  -11.97987431042443   -7.54752533599988
H         -13.43463724863669  -10.27476133537013   -5.80768920352412
