99
 SCF done       -198.314070477489          0.000826996631
C          -7.46537747895943   -3.97224120767674    8.53347362697929
C          -6.65105530300633   -4.63358804615779    9.42046395391519
C          -5.24712100643562   -4.52524097661010    9.42629587621614
N          -4.09840838810201   -4.52557222029761    9.45682109357782
C          -7.06403891648119   -5.54829612143015   10.41074640019028
N          -7.28403749134396   -6.30250787360117   11.24900576049631
C          -7.00032786530577   -3.00659561272925    7.53794770442048
C          -8.11965666132824   -2.54007047382367    6.80840664029729
C          -8.01544994303690   -1.66442653440293    5.75802200355802
C          -6.73374675408602   -1.23448571250559    5.39753513923932
C          -5.62339039076446   -1.68043772888626    6.14879920721148
C          -5.73347698823478   -2.55426614491492    7.22477937623387
S          -4.13192564414750   -1.04343838434209    5.52131146176882
C          -5.01071733495339   -0.20716655863422    4.26811224995797
C          -6.35165219885108   -0.38753936474922    4.32184513004639
Br         -4.07358792430023    0.80600050241347    2.99561766998996
C          -9.33589106027686   -3.17243522099705    7.34877398920458
O         -10.48702043244433   -2.89359042587654    7.04670900362429
C          -8.88886817040281   -4.14033355912713    8.34901969815882
C          -9.70029242295445   -5.02863348691063    9.03480588824236
C         -10.98469005312736   -5.48821654884989    8.74150487704976
C         -11.69534733223174   -5.53056115348613    7.55402174615280
C         -12.94381884109113   -6.20219759008076    7.41531222052958
C         -13.41755550753722   -6.26653324138764    6.14184027844639
C         -12.55331952294216   -5.65580536147142    5.20295088477412
S         -11.16465178592890   -4.96825611665661    6.00294021509156
C         -12.72460194895582   -5.48113841673199    3.84199902649912
C         -13.83014094852845   -5.85381497915696    3.04273899450570
C         -13.73580125914173   -5.43420504513035    1.75103208798996
C         -12.54208553493639   -4.72537423247929    1.45914708984365
S         -11.52846987525647   -4.64180167912328    2.88265225171474
C         -12.21393375791997   -4.13204245837298    0.26222147732831
C         -11.00843458010151   -3.46456142535902    0.01804790000978
O         -10.00823087982224   -3.46255319849470    0.94407414540992
C         -10.57011583870967   -2.74042974880340   -1.08855361172205
C         -10.94942128397066   -2.27793995705191   -2.42676048472093
O         -11.95933778631521   -2.43252064946802   -3.06197126719133
N          -9.82593024582472   -1.57260758024163   -2.85667449817479
C          -8.76629220282327   -1.53039256077338   -1.95252889306623
O          -7.71465362216815   -0.97753460921385   -2.13749068403548
C          -9.26692192961723   -2.29499681055036   -0.80335141782124
C          -8.93192684098510   -2.77140960903724    0.46055099457900
C          -7.72909597841616   -2.71889160651670    1.18381177354406
C          -7.56734607938925   -3.41443816979726    2.35447177873127
C          -6.37896327010267   -3.54603852245768    3.07305590005557
C          -6.28482126689898   -4.37329793111420    4.17469597965520
C          -5.16262766325863   -4.65414756766228    4.98385976325455
C          -5.40703358636154   -5.54411499736378    5.99326360136017
C          -6.73448160113840   -6.01604142816892    6.01732207183170
S          -7.66889960932487   -5.28878899267388    4.73953779691542
C          -7.34245020554372   -6.92348902029105    6.87420609482590
C          -6.84042835027522   -7.56120489519155    8.02454439995434
C          -7.76436133468967   -8.33909741136009    8.66611501519879
C          -9.02796059680172   -8.37178585258414    8.03695768220715
S          -9.00292757417789   -7.38467107926185    6.59901522906201
C         -10.16737426298925   -9.04261174284512    8.44504933989969
C         -11.34153958564932   -9.04171317325593    7.69920775638304
C         -12.54964363493481   -9.63695219598164    7.99345508215498
C         -13.06039045679404  -10.21353549098007    9.20549607296269
C         -12.73607446781691   -9.83566892806544   10.48897336176992
C         -13.29092823386771  -10.41662642669760   11.64425931299914
N         -13.70302575087919  -10.87708002328587   12.61231676061166
C         -11.93158725791384   -8.71461046537821   10.76192570247827
N         -11.34871572556353   -7.75332197863098   10.99948074772580
C         -14.16937473872600  -11.09168020728702    8.83788864649269
C         -14.47719206391643  -10.87553267577408    7.47038086593746
C         -13.52272287662517   -9.89412646157331    6.91177398125123
O         -13.52553421359026   -9.40741850629179    5.79892733598766
C         -15.50731784486678  -11.52619805219248    6.83799016968735
C         -16.25865973017346  -12.44180795828747    7.58444547345859
C         -15.93460532860775  -12.65725482420810    8.94428641386800
C         -14.89868367799197  -11.99005009608667    9.58940828388992
S         -16.98328977065168  -13.83434443651994    9.67319174906129
C         -17.83486727349217  -14.01662109932720    8.16280691389724
C         -17.35851446930502  -13.23804478364360    7.16247595065596
Br        -19.27087205731237  -15.21810017104247    8.04847233404708
H          -8.89008899194955   -1.33806408860911    5.21838342324346
H          -4.85272235194713   -2.85999587841413    7.76348965200859
H          -7.04436163496598    0.05275330616097    3.62832940847975
H          -9.28761846571708   -5.45611088211411    9.94089233133539
H         -11.46207260322874   -6.01807501022059    9.55916496216073
H         -13.44587741851226   -6.61405653547497    8.27341799712053
H         -14.33943308801994   -6.73828258437066    5.85605846377631
H         -14.66011615578335   -6.40403384091067    3.44692808794443
H         -14.48260530567963   -5.60201017302430    0.99565585145258
H         -12.92032844239239   -4.15744768796982   -0.55355913939971
H          -9.78192181341931   -1.12586356652700   -3.76147564716065
H          -6.92174628333659   -2.15762342246171    0.73779170389250
H          -8.42972046034679   -3.95105999314190    2.73248620145189
H          -5.49202164418310   -3.02303598947863    2.74292697089800
H          -4.20557771790989   -4.19865301611878    4.80025739796889
H          -4.66979650139179   -5.86941732957234    6.70538182928252
H          -5.82710151847451   -7.42576366377482    8.35937472609087
H          -7.57422238492432   -8.87482936555471    9.57851911973136
H         -10.10261810149318   -9.60367201695441    9.36558918242536
H         -11.29075961732026   -8.60170472684103    6.70699742513621
H         -15.72841059267937  -11.33994140880246    5.79867729946496
H         -14.68507224405543  -12.18733860949977   10.62699607538173
H         -17.76421217178876  -13.22548822365359    6.16740206622971
