89
 SCF done       -161.256938330554          0.000857028898
C           0.07872395849770   -0.77430325404267    2.35093721355289
C           0.60418226892229    0.45163772061196    2.67746864334629
C           1.63341553890365    0.64198222264177    3.62009583578516
N           2.47296308521880    0.85348185691904    4.37495845044458
C           0.14549405141226    1.67999066009833    2.15979520214707
N          -0.20132178700558    2.71734256634810    1.80811934342997
C           0.42775433554603   -2.04379395640696    2.97481125611172
C          -0.46526341994900   -3.03603694171402    2.50255842469984
C          -0.39775984155002   -4.34514568653923    2.90996119662442
C           0.60128640395978   -4.69379008343348    3.82598283422562
C           1.49176297006370   -3.69662920265787    4.28753996788601
C           1.42193700937414   -2.37055090339826    3.87769493255799
S           2.65564360523847   -4.34614164937485    5.40346332133045
C           1.93698383537980   -5.92620207115635    5.23837276781844
C           0.88114350146123   -5.96789940328694    4.39187822084246
Br          2.64771588943501   -7.37270496074714    6.19903379657308
C          -1.40619549365391   -2.43290274463039    1.53519717491076
O          -2.28606778292110   -3.01915354474597    0.93670230129791
C          -0.99044516960361   -1.02269397251801    1.40782385211997
C          -1.38599925582759   -0.15927777492910    0.41981314201459
C          -2.45383705855398   -0.31613806912507   -0.48943351886722
S          -2.23760377372321    0.32409276115039   -2.10476552108091
C          -3.72690367863426   -0.35702557611668   -2.60604693561014
C          -4.39292941000957   -1.00046391499471   -1.60689939042896
C          -5.72433089736230   -1.65122999106925   -1.77465205802661
C          -3.68727768432816   -0.95480654573658   -0.37132429080484
C          -4.26330172347278   -1.40356727485467    0.86832455757416
C          -4.11477452600948   -0.75729585391981    2.04201695423578
C          -4.67534790418641   -1.17024508589073    3.29271798375056
C          -5.10971629905941   -2.41518112702373    3.58297528039291
C          -5.67885248394964   -2.76006230066071    4.85025084072115
C          -6.07027828779387   -3.98809605462934    5.22841608304076
C          -5.94976676500566   -5.20744469858596    4.36468427099802
C          -6.68157270210182   -4.20872183607263    6.58794717761004
N          -7.90494650087930   -4.96328273433191    6.48773079247880
C          -8.29142613331358   -5.92967597650633    7.33588655145477
C          -9.45749567444387   -6.62416241027671    7.21656617671750
C          -9.86972152222605   -7.61532788277811    8.11966478493677
C         -11.03467684702401   -8.33055989267779    7.98845329666505
C         -11.55166893324562   -9.32058828993377    8.85507318217750
C         -12.73807241940876   -9.85697951734913    8.44880238104788
C         -13.21668827147788   -9.32405354136437    7.23238489721709
S         -12.12517819100986   -8.10782865653379    6.62373335956788
C         -14.36236557209256   -9.65574072482199    6.52907891603452
C         -15.36904298324722  -10.58566895834032    6.85305397319698
C         -16.35884854503901  -10.66898690393615    5.91877995705509
C         -16.18265354918390   -9.81262459356727    4.80188543998685
S         -14.71099991996432   -8.88506777322161    4.99545737367584
C         -17.03732984974540   -9.72894798225182    3.72950893599171
C         -16.91446597521346   -8.92572026888219    2.58109838974921
S         -18.16972807086172   -9.00278454209846    1.34793532917235
C         -17.41282838312297   -7.85858864330339    0.30737305076990
C         -16.23826947350721   -7.41970016814851    0.86728672043835
C         -15.96434072177631   -8.01845663882004    2.13925727841390
O         -14.79755184472891   -7.55249673480703    2.63713190693916
C         -14.32790833743042   -6.67546453484731    1.71360929403765
N         -13.10515851206348   -6.03003658990014    1.97864389580158
O         -12.70158226913874   -5.25480103237110    1.12532967064296
O         -12.52762435211384   -6.27787455920174    3.01890161750758
C         -15.14567602001388   -6.54619441179392    0.61990692481968
H          -1.09067278787823   -5.08025754193677    2.53159019351636
H           2.12723302735985   -1.64747053153264    4.25209316640550
H           0.32376357177925   -6.86002642938250    4.17162815732256
H          -0.75752492377900    0.70485868124254    0.23313329547841
H          -4.03802961539967   -0.24110450753002   -3.62634075780317
H          -6.07024802797693   -1.55151952084663   -2.80002380948807
H          -6.45639778923601   -1.19432198381954   -1.11002675350794
H          -5.65748987505674   -2.71019501046827   -1.52847525892836
H          -4.91543070886192   -2.26160491532412    0.80155072506321
H          -3.55380951417804    0.16958141670948    2.05632656875865
H          -4.71855714151802   -0.41262333414847    4.06601582707435
H          -5.02565865867036   -3.19300404003518    2.83967424884086
H          -5.79601952034977   -1.94046184775523    5.54923644076548
H          -6.69445036370707   -5.19250191075008    3.56829543037699
H          -6.10369428139813   -6.10933323147182    4.95173200642652
H          -4.96810213840636   -5.25710462719365    3.89897348944297
H          -6.86781679847314   -3.24042198695381    7.07299664305604
H          -5.98613149834952   -4.77243614333177    7.22061848177233
H          -8.53798812639272   -4.71108779652243    5.74302906644243
H          -7.60547949871047   -6.14269943428214    8.14567800835144
H         -10.11462493414844   -6.40444559596337    6.38552887114140
H          -9.24202040549895   -7.82958858101337    8.97511322847727
H         -11.03273514394629   -9.60544722134060    9.75388091817466
H         -13.27448286758319  -10.62002062604926    8.98402073569663
H         -15.34192775889758  -11.16492689128024    7.75894054741149
H         -17.21079658889325  -11.32192585537168    5.99095989143313
H         -17.91561888139165  -10.35985917562516    3.76041833800614
H         -17.86833218538632   -7.59175795067680   -0.62229724104014
H         -14.97215820147540   -5.91371275496065   -0.22554386628545
