113
 SCF done       -183.011713708302          0.000790703311
C          -9.22900383947444    3.63993575609275    2.91468785331151
C          -9.19331714728161    4.00512953547115    1.58999083662984
C         -10.32971067383537    4.08081789808235    0.76180395859392
N         -11.21930756496993    4.16887456957272    0.04041786256336
C          -8.02073572866228    4.30870189668814    0.86966699004644
N          -7.10774143769629    4.53403992376646    0.20936706043024
C         -10.41367754376614    3.19783670642946    3.64035363479716
C         -10.01908893353127    2.77980251848510    4.93419225681383
C         -10.90931803476554    2.29631157412458    5.86004131300684
C         -12.25764405775272    2.22130093375698    5.49179006399934
C         -12.64355534594220    2.64757185856929    4.20004277441967
C         -11.74192271384209    3.13626296751918    3.26225645783152
S         -14.35727390600759    2.48000605791505    3.95734245286128
C         -14.52682336198288    1.84522263194459    5.57215178552573
C         -13.36340597737125    1.76271385031750    6.25938192614817
Br        -16.22446100184330    1.34908676614101    6.19978527478208
C          -8.56234825486549    2.97636728540024    5.09089709853700
O          -7.92283173626362    2.80049363348273    6.10971488749472
C          -8.09455852259792    3.52752602972936    3.80457275470293
C          -6.84771914370662    4.05828416549647    3.57272695068244
C          -5.66889196129894    3.83914858785882    4.30521139046319
S          -4.45093264875672    5.09248661074215    4.28852463679755
C          -3.45624581792749    4.17252006996374    5.33316229387743
C          -3.98064265117990    2.96047673462613    5.67127291147933
C          -3.24174065345538    1.98479242058055    6.52509598291144
C          -5.25499343693824    2.73992042778829    5.07132794625521
C          -5.98609157201094    1.50915670859919    5.06596793176050
C          -6.02264765651857    0.57606742609191    6.04315918974561
C          -6.74604761839769   -0.64263728013730    5.91758106425779
C          -6.87926070874709   -1.54063524294743    6.91965509870871
C          -7.56593932226849   -2.78486910368631    6.76950226559126
C          -7.79812682882237   -3.68541783725891    7.74158988511011
C          -7.37499511720691   -3.51022058680275    9.16790626450386
C          -8.47319733681247   -4.99432536961559    7.42002373846191
N          -7.53532415022149   -6.08649154605640    7.58271948169518
C          -7.47104874681301   -6.83708882050847    8.70865694339497
C          -6.36099665489219   -7.49672697206008    9.13056052731205
C          -6.34301492995232   -8.36118849467123   10.24133855619262
C          -5.21613661397785   -8.95425798563706   10.74328060069422
C          -5.12781044664063   -9.85091998322055   11.83638116822149
C          -3.86451570173992  -10.26402860975155   12.12651557575931
C          -2.86905574336583   -9.70772024194298   11.28936882353776
S          -3.60310930907355   -8.65915331247897   10.09393707933749
C          -1.50506983824495   -9.88888614163450   11.35856283820717
C          -0.77475392577211  -10.70069349436502   12.25633140382120
C           0.57129168569607  -10.63839800023786   12.08810864547458
C           1.00843422560765   -9.76456833630467   11.05055300988596
S          -0.40440159940595   -9.05048632189490   10.27967784973882
C           2.31886363381548   -9.52085637651776   10.75832276789868
C           2.91286307911751   -8.64823304501053    9.79345034111739
C           4.30712548650225   -8.49114796786573    9.81138912865374
C           4.97732066041397   -7.64423036379036    8.94617389289296
C           4.23114043850258   -6.92716195883677    7.99016854470059
C           2.84416297142950   -7.08302709046786    7.95586820319599
C           2.19516756192480   -7.91685535632134    8.83461153689282
N           4.85827470539962   -6.08127372914686    7.06871570460732
C           6.00902226026565   -6.50726384431193    6.39712033628301
C           6.18599251210161   -7.85529344366527    6.08705419580158
C           7.33233861944780   -8.27522341367446    5.44157725352655
C           8.31279482339157   -7.36381849118391    5.08696529556925
C           8.13852636192646   -6.02226478836914    5.38639533397699
C           7.00004599486387   -5.59294315585831    6.03863303846098
C           4.25490840783806   -4.86212601002903    6.74405029617717
C           3.61031378218629   -4.11980974936358    7.73433658918221
C           3.00790353076826   -2.91726236769640    7.42201501416591
C           3.04391180977815   -2.43001951854726    6.12559333477570
C           3.68435118478830   -3.16193069491236    5.13909948322236
C           4.28194007381200   -4.37054223612450    5.43902580493285
C           6.42348911969957   -7.45133904581745    9.06747638830229
C           7.28748526412868   -8.40145443770411    9.39244348736219
H         -10.57696490796973    1.98450018640227    6.83777236418453
H         -12.08553603575730    3.45393133267192    2.29211733167976
H         -13.28601114521818    1.39635803476068    7.26674268919101
H          -6.75300134509023    4.77351551464181    2.76366961129605
H          -2.51204539240803    4.57595609108331    5.64523729257960
H          -2.19044136733981    2.25788661306370    6.57923522639800
H          -3.32858464445109    0.97986077209806    6.11643196409026
H          -3.64417374960706    1.98193105554882    7.53747161933907
H          -6.58801173024725    1.34110906817939    4.17864673782430
H          -5.53715483477487    0.75796298196726    6.98902659470498
H          -7.20630838183203   -0.84660053156633    4.95826810452137
H          -6.44366086841521   -1.31531339698408    7.88268437162738
H          -7.92930256328413   -2.99956554431116    5.77138523734115
H          -6.37849502862619   -3.08071179597129    9.23938024681765
H          -7.37298519731035   -4.46512068172107    9.68966951842794
H          -8.06500815964338   -2.84271522799980    9.68468127359195
H          -8.83570755815137   -4.99278692801600    6.38724101175313
H          -9.32041551387628   -5.17045808192332    8.08834421761002
H          -6.65932468157830   -5.95971080835585    7.09247928094687
H          -8.40370923919053   -6.93150224076267    9.25027747014438
H          -5.42988342752226   -7.35716800093491    8.59666475162288
H          -7.27994069809488   -8.56938507052901   10.74170262618935
H          -6.00758584562922  -10.16294345960490   12.37202949684502
H          -3.61743227378650  -10.94331408876051   12.92276763383603
H          -1.26423111601110  -11.30424949537974   12.99993141232394
H           1.28189845250325  -11.18551255961415   12.68291827369262
H           3.02616988778617  -10.05730375702025   11.38092442093790
H           4.88045029664764   -9.01839915863255   10.56017709769391
H           2.27769246392629   -6.53859743308333    7.21405948613243
H           1.12473181821813   -8.01554844672535    8.76556575894437
H           5.41799807879955   -8.56693469088148    6.35223838537325
H           7.45646625061562   -9.32198757180979    5.20640023122827
H           9.20633239742535   -7.69546018009698    4.58041251665031
H           8.89990526192687   -5.30468342339061    5.11776507249373
H           6.87343526927001   -4.54815395171607    6.28337306952785
H           3.58773281088842   -4.49450478867930    8.74730496771016
H           2.51334383896681   -2.35282233294463    8.19888527693532
H           2.57537794839252   -1.48769443385209    5.88535742846127
H           3.71092696566527   -2.79370453698509    4.12399994994063
H           4.76702732505566   -4.94497724432860    4.66356118712949
H           6.77790773981813   -6.44580065084477    8.87918530672124
H           6.97993694518800   -9.42108004236025    9.55454323561370
H           8.33999967989185   -8.19883587494290    9.48901697983242
