94
 SCF done       -185.578639596731          0.000402204524
C          -6.42101228698756    0.58497506242517    7.79764956217314
C          -6.40073876432126   -0.77605274626533    7.58503391695955
C          -5.62925832817485   -1.68153695522456    8.33963930264382
N          -5.02809878939516   -2.47734447902497    8.91022752540483
C          -7.13645948464681   -1.47975134313275    6.61228479956119
N          -7.69546649960359   -2.15071258256781    5.86328522730510
C          -5.66938762328065    1.28407853323123    8.83854412006263
C          -5.96835161817659    2.66663763902355    8.76323834314311
C          -5.42032313571221    3.59075922056664    9.61719308266470
C          -4.53226369029756    3.12981575905335   10.59607609437240
C          -4.23933106493871    1.74829587513245   10.66355163444548
C          -4.79448584064706    0.81262987639082    9.79798447841288
S          -3.12087418332666    1.39369995810546   11.94583724073441
C          -3.06394467550946    3.08442758198679   12.36779443927692
C          -3.84066509453563    3.87508637342301   11.59013308670189
Br         -1.98433921007792    3.64594289665927   13.79574213997058
C          -6.92582998551292    2.89774964628169    7.65989728582237
O          -7.39427033155595    3.96770393295205    7.32309876262585
C          -7.18024106152512    1.56890420388752    7.07312849032375
C          -8.01835105506529    1.32762321326018    6.00336963970427
C          -8.77968609266633    2.27632085386168    5.33079580132243
C          -9.62807485832965    1.92381720112372    4.29573257453931
C         -10.50686177510910    2.75740798170922    3.57034003623944
C         -11.26415377411068    2.09841413082063    2.64165787120965
C         -11.00888662664259    0.71494893907449    2.58685075013224
S          -9.76883786076413    0.27370910738757    3.73594713384787
C         -11.60744680060002   -0.26973181813957    1.81571644869318
C         -12.69727264981011   -0.18297856471015    0.92473310510388
C         -13.06984227727810   -1.38734400750801    0.40456570877416
C         -12.29689921956356   -2.48759187671545    0.85661101962909
S         -11.05447662165272   -1.91766089562176    1.94628433904581
C         -12.44964538355394   -3.78801093566361    0.43541507728755
C         -11.73299089826457   -4.94087667557673    0.79850586796763
S         -11.72301428284243   -6.24558936577375   -0.36224486127143
C         -10.59910036711721   -7.16250690323633    0.58468167108344
C         -10.28128226304433   -6.48423592680026    1.77737182022391
C         -10.95040736129364   -5.25504135500005    1.91956231126470
C         -11.04801199985315   -4.47877028923955    3.16368768069534
C         -12.20032843590213   -4.33859013148399    3.80260981759410
O          -9.43761618935267   -7.10048587317526    2.63497869504410
C          -8.92937296007214   -6.41940267502236    3.76464023877422
C         -10.17676224425562   -8.42057838614252    0.11001137917081
C          -9.23072907466024   -9.21824934606135    0.67684824864813
C          -8.87137155687746  -10.48759251772401    0.17372727332715
S          -9.73664618550244  -11.26335485827687   -1.12066546379900
C          -8.70964588591723  -12.66552406978679   -1.06711616818770
C          -7.74735802659826  -12.52402487159171   -0.06020726699797
C          -7.82708184437949  -11.29895813476099    0.62671423742436
O          -6.96837085440450  -10.98688294562976    1.60988566987937
C          -6.78534934923991  -13.50974752746140    0.22329231716673
N          -6.01072087199084  -14.32016754913335    0.46079653628834
C          -8.91276348354648  -13.83340744644479   -1.82658443649794
C          -9.73178802627599  -14.04711056166245   -2.89680924864972
C         -10.41520864589021  -13.15147429228005   -3.80116146646765
C          -9.94834469806657  -11.94049727754563   -4.24545680646027
C         -10.62079794618751  -11.13867736315960   -5.18769931772934
N         -11.14498399527781  -10.44125014137771   -5.93397556256383
C          -8.69236935522273  -11.41911002439106   -3.87325838207678
N          -7.65739084015257  -10.98756334979120   -3.62788642837527
C         -11.53015167145723  -13.89157795865564   -4.38276546360371
C         -11.38165782793149  -15.26270846543244   -4.05321451829213
C         -10.19539197821697  -15.43203277515187   -3.18777780087249
O          -9.73146332074282  -16.46093779601240   -2.75694555065594
C         -12.25846666599970  -16.22412648248313   -4.49280577316922
C         -13.33750321275300  -15.81098919561128   -5.28206556959362
C         -13.48254492315320  -14.43795021167540   -5.59431626293692
C         -12.58956822416901  -13.46567562479305   -5.15945035640567
S         -14.89136600329647  -14.14992850788750   -6.56889035960781
C         -15.26005000348434  -15.85438712095434   -6.54767613569227
C         -14.37548359645590  -16.60221224016108   -5.84652262465194
Br        -16.77947695761862  -16.48287134694560   -7.44915276785354
H          -5.66859476228562    4.63734260035794    9.53513270548940
H          -4.53821819724738   -0.22928819488382    9.89171949847893
H          -3.92399721905432    4.93972849189532   11.71092745981577
H          -8.10856277836102    0.30506637314202    5.65623031395066
H          -8.72992475300735    3.31184421329505    5.63345424849321
H         -10.56360046502802    3.81375506445563    3.76393071568842
H         -11.99115709202851    2.57089017331953    2.00551197863014
H         -13.18175030773665    0.75086649156057    0.70368175263531
H         -13.88424228823205   -1.52420434033226   -0.28476493416465
H         -13.16899096130141   -3.93424408903745   -0.36215708569072
H         -10.14826546576407   -4.03005948133291    3.55964980868473
H         -13.11204701547729   -4.78086345678677    3.43547759262380
H         -12.26774215098506   -3.77750428385159    4.71801830476535
H          -8.25257752497853   -7.12588045654657    4.24430245650576
H          -9.72383363999653   -6.15076359897196    4.46357340900310
H          -8.36974638093033   -5.52775378502503    3.47403338928397
H         -10.65515824846862   -8.75941547092846   -0.80090640779154
H          -8.72132172250308   -8.86957717392750    1.56344455280984
H          -7.14041275027615  -10.09977349578928    1.94977832358394
H          -8.42077209917639  -14.72228587999285   -1.43967748704200
H         -12.11836157946177  -17.26228499728603   -4.23591859497916
H         -12.73987603309800  -12.42991403957331   -5.41612071253473
H         -14.45022785968094  -17.66789486587281   -5.72965547834040
