99
 SCF done       -191.246876834153          0.000586660383
C         -12.48143636348999    1.95379845302430   -8.05320143081678
C         -12.01534013046020    0.77032798941285   -8.57529108298259
C         -12.63751267600469    0.07402320530680   -9.63006292991458
N         -13.09788065136962   -0.54318867586002  -10.48278462602229
C         -10.87134647019414    0.07231743943639   -8.13987197593677
N          -9.95909170533845   -0.56388223074841   -7.85122668759426
C         -13.67642241041376    2.65760227565971   -8.52039123325248
C         -13.85312770977126    3.81654737193339   -7.72918423686084
C         -14.87988205979507    4.70555502364487   -7.92837465304912
C         -15.78560231289384    4.43504171960935   -8.95893078867315
C         -15.61108364921434    3.26901216024604   -9.73791060640395
C         -14.56591367848655    2.37317432381994   -9.53950457502457
S         -16.85395438193519    3.11682365390442  -10.94374777551110
C         -17.58320698253237    4.59505211892429  -10.38125305976924
C         -16.92785230079407    5.18361920293146   -9.35502245401516
Br        -19.17141835470983    5.20418774619096  -11.16256872701137
C         -12.77935014499538    3.88585030408870   -6.71447294780488
O         -12.67624983298711    4.74570373276954   -5.86120548441992
C         -11.91330047931707    2.71566135533176   -6.96589285694464
C         -10.75216790735038    2.43713944100339   -6.27519114958854
C         -10.25833924215668    3.23029490507138   -5.23380915303414
C          -9.09934348584302    2.96895217360805   -4.54774895203991
C          -8.67228314399629    3.81648218696395   -3.51326011986442
O          -9.41993383317401    4.90090993387413   -3.19319219488024
C          -8.83141484492938    5.56795402968406   -2.16959762607241
C          -7.65578421177476    4.89435553160600   -1.81604667531274
C          -7.55217798733305    3.78190635306305   -2.66741615196015
O          -6.57884615026326    2.85618784004539   -2.68258355334444
O          -6.73723919373635    5.18465614642644   -0.86026553186705
C          -9.52423054098026    6.71652556600150   -1.74419344290901
C          -9.26285807157128    7.59186475387470   -0.73182187797933
C         -10.10617743504955    8.69327601115188   -0.44259185025660
C          -9.82310966559721    9.54869208486892    0.65633698248207
C         -10.67500750291712   10.64654483486900    1.02978655453858
N         -10.35981101286730   11.41615109557054    2.06825757290130
C          -9.25953382456100   11.16194959249715    2.75518816021196
C          -8.42004691479703   10.07050266970863    2.39431385292079
N          -8.71196637871341    9.29950049114853    1.37014186796856
C          -7.24572996993516    9.79604717486318    3.13965668568647
N          -6.30217783552535    9.59337349249532    3.75705969537459
C          -8.93137346569379   11.98902847596606    3.85399595120161
N          -8.64300583951424   12.64286828817772    4.75067612626791
C         -11.89510197045405   10.94237545343984    0.32382672598066
C         -12.13862687384249   10.11055532660093   -0.80422142985445
C         -11.27235421519826    9.02312356564968   -1.18357175091731
N         -11.71441961140829    8.41450738832396   -2.28103866429872
S         -13.06672795664498    9.11549479950620   -2.79701391732528
N         -13.15785848587679   10.23750912698493   -1.63882107134834
C         -12.71016073696700   11.97299778499172    0.77749065265998
C         -13.97485919665601   12.39203307318740    0.36953698438790
C         -14.67281019759843   13.45471860886136    0.97760474527287
C         -15.93818567671606   13.66959033317030    0.48654837995041
C         -16.28427093503057   12.76531069378524   -0.52141593294492
S         -14.96507049136436   11.67787052525137   -0.86966579387539
C         -17.46788885038393   12.61256236964760   -1.25141169485687
C         -18.63312015638162   13.39069708591966   -1.28206520523007
C         -19.58365088014272   12.91883032626645   -2.15201855153165
C         -19.21979978325235   11.73775571285666   -2.83049872384360
S         -17.60931208053776   11.25882817274576   -2.33227697690184
C         -19.99236924011939   11.05002879242238   -3.74830858399629
C         -19.71029831966342    9.83602618949662   -4.38685659447859
C         -20.57572289542563    9.22741951658568   -5.34372154352465
C         -20.02636160023515    8.01311410667937   -5.74397038856429
C         -20.47643799362360    7.03192376592885   -6.63576399304836
C         -19.70796703383364    5.89203029565321   -6.77818982294115
C         -19.89208288533622    4.72986323065973   -7.55673689422490
C         -18.82756015443336    3.84604587495881   -7.31147615560415
C         -17.96289128779555    4.44686383085651   -6.37878939625983
C         -18.47097082070804    5.71345847303076   -6.03188135578791
C         -18.00451176015022    6.68852171127938   -5.16907259631785
C         -18.77769731224961    7.84310909666629   -5.01737447426817
C         -18.59966173382393    8.96440435649774   -4.21021114215818
C         -18.60751047604417    2.54496795185514   -7.89711631989905
C         -19.36496538491307    1.98703185996661   -8.83799626027108
H         -14.98259861112477    5.58386531641139   -7.31035417231263
H         -14.47494140445116    1.50275132028841  -10.16705575587262
H         -17.23819467567203    6.10111580693881   -8.88900117206240
H         -10.17682124709935    1.56293569877874   -6.55094042452257
H         -10.82413442130139    4.10575881024433   -4.95142262058921
H          -8.48150111906271    2.11211499721492   -4.77316855625294
H          -5.93420407760653    3.07655366659533   -1.99623288312601
H          -6.98195484402929    5.99523060242641   -0.40102576618696
H         -10.41109923604944    6.89542550621957   -2.33627939830109
H          -8.41096172444473    7.48782159073621   -0.07379698640463
H         -12.30006663017964   12.52112301581390    1.61823444065177
H         -14.22986580795760   14.03446047861763    1.76849410312712
H         -16.60310840844567   14.43576327433966    0.84421643946413
H         -18.74654526138611   14.27614478892465   -0.68282988571242
H         -20.53785543566160   13.38916303999378   -2.31348599540860
H         -20.94518565480689   11.50612982950072   -3.99090487838133
H         -21.50233126341185    9.64850014616623   -5.68914695656744
H         -21.39854458919261    7.15997806452604   -7.18422921088114
H         -20.71759688312674    4.55912406491985   -8.22178991560975
H         -17.05987249219135    4.00757066250753   -5.99472771986861
H         -17.08210236336634    6.56147659689353   -4.62067496509815
H         -17.76733402294706    9.12078603504269   -3.55199519369982
H         -17.73721488251161    2.01777196572121   -7.52462543081944
H         -20.23285457398241    2.47953250754374   -9.24251469008795
H         -19.13736261997675    1.01537257118842   -9.24034169804181
