113
 SCF done       -215.253159352117          0.000586296927
C          -7.54166619654694    1.12211992464264    6.30136329686925
C          -6.47739949892410    1.53046332851023    7.05999559022377
C          -6.29910354763307    1.19193877251974    8.41802089987075
N          -6.10206021698621    0.94405714413677    9.52129602397900
C          -5.44149104430190    2.37370151101086    6.60443799367974
N          -4.57938255424713    3.07175612509970    6.30829464045888
C          -8.67540595241300    0.33822270254049    6.77187708408541
C          -9.64731503293366    0.27861968862323    5.74312132736271
C         -10.83674086622335   -0.39361910055003    5.88690565160801
C         -11.07846361643690   -1.04007107453874    7.10334827154195
C         -10.09880644269026   -0.97994353436675    8.12387629592247
C          -8.89690174923361   -0.29887308082520    7.97933534017846
S         -10.59533875512651   -1.85791216472881    9.53858261541990
C         -12.09147118065546   -2.28645201282483    8.75224756774053
C         -12.21529530032103   -1.79831841185417    7.49492524092475
Br        -13.34727954470320   -3.33904141120695    9.66402780051730
C          -9.15704238510197    1.00154725842870    4.55249560847085
O          -9.73340350953335    1.11783513063679    3.49402788346826
C          -7.79016048447656    1.46551542417152    4.91074325676622
C          -6.88351297917813    1.96522735010510    4.03002412926511
C          -7.13103043046831    2.26722497081481    2.64543262856290
C          -6.27146092284298    1.73107449803441    1.71952395896880
S          -6.82918636203595    1.81599491212143    0.10780055992091
C          -8.24127315002629    2.68510375577901    0.63763675518545
C          -8.25549558956398    2.92179746735829    2.01758451641322
C          -9.26093585897798    3.75314529871784    2.56141301242111
C          -9.07093232159376    4.30076961949980    3.95257834843220
C          -8.64501004789408    5.77132031127580    3.88383626418026
C         -10.33561175241471    4.15533306373286    1.77371016503344
C         -11.50938491956630    4.86147075103754    2.40029477391370
C         -12.70012087493692    3.90505620152740    2.50473682341785
C         -10.36737708043107    3.82717780712778    0.39493567798665
C         -11.35371194782662    4.09432279810227   -0.63273775955711
C         -10.97608339617992    3.58500878508283   -1.84573184307529
S          -9.44692884922124    2.81969580595203   -1.86056479058675
C          -9.28596206131023    3.11995364580519   -0.15747221054545
C         -12.58105602153108    4.84228061155718   -0.52856078455148
C         -13.68934093749428    4.57820481755441   -1.25331087867387
C         -14.84515209206888    5.40199934804290   -1.18027426648826
O         -15.94990769488266    5.07072453050818   -1.89564202286238
C         -15.10159599990741    6.58401194424065   -0.50654787026065
C         -14.54772372230179    7.56737171516614    0.42236778504816
O         -13.47863766722111    7.61379828281609    0.98232504752805
N         -15.56504433209844    8.50402209537817    0.56021318445555
C         -16.72599208360459    8.23504053502362   -0.16918702321175
O         -17.71174423317538    8.92584649180739   -0.17782425303866
C         -16.41520964332536    6.98148592921615   -0.85568789849235
C         -16.91783287660843    6.01816663245457   -1.71515449677096
C         -18.17232350113962    5.90286626433398   -2.34847835936875
C         -18.55288969438389    4.79285078286177   -3.04803453944255
C         -19.78730360283563    4.65332967874846   -3.69404081762965
C         -20.20765401851220    3.49015322978902   -4.29578941136726
C         -21.42048186580517    3.27405021000908   -4.99246306956530
C         -21.58291903529636    2.00058045097705   -5.44977262842539
C         -20.51199863331870    1.13767910845187   -5.12524877427348
S         -19.27516016545351    2.00257589974522   -4.25198010737713
C         -20.40385846413285   -0.21799262014918   -5.39029690496582
C         -21.31833799933187   -1.04259228144488   -6.07838791679420
C         -20.94027225507430   -2.35233715781331   -6.13404876215616
C         -19.71535816242594   -2.62765185486083   -5.48527371861242
S         -19.03829505015792   -1.15696630507807   -4.83084823988637
C         -19.11482852980236   -3.86554398964822   -5.35676361018736
C         -17.94029950829746   -4.07794714183458   -4.64344490263245
C         -17.26566844253147   -5.26266453389930   -4.44243686389460
C         -17.37690559079115   -6.55525048968660   -5.06063645778265
C         -17.80607635536957   -6.83260565477615   -6.33824559127898
C         -17.85300760752068   -8.12863984479575   -6.88690592666130
N         -17.93457544009384   -9.16452851297211   -7.37676988982578
C         -18.14470137699194   -5.85463588187442   -7.29366574968946
N         -18.38749778382152   -5.10409251953438   -8.12884119159642
C         -16.74384919165673   -7.52306878983851   -4.16370672174051
C         -16.08053296373677   -6.81548608498107   -3.13042687066799
C         -16.32702393807219   -5.36789871796669   -3.30262154983695
O         -15.89245879016804   -4.45883662525830   -2.62829539054165
C         -15.36573126808288   -7.44771861347978   -2.14370800718615
C         -15.31374036784697   -8.84617951052016   -2.16907643372224
C         -15.98994417741371   -9.54329953217608   -3.19679600972662
C         -16.70498914238999   -8.90252609433180   -4.20279836702128
S         -15.80846935024510  -11.26340875022987   -3.02906669329069
C         -14.83696265633639  -11.02508837226592   -1.60075793703226
C         -14.65700039029256   -9.72604844254344   -1.26504842302546
Br        -14.15515291391323  -12.51436627554057   -0.68584028985211
H         -11.55668165273326   -0.42233574997229    5.08404717605090
H          -8.17875030469283   -0.28811450917722    8.78215073898455
H         -13.07120576586551   -1.96687049662381    6.86726510770176
H          -5.84522450351145    2.02431444699515    4.33449939131999
H          -5.36889777043369    1.18980395363348    1.93212371586859
H          -8.27748218069480    3.76112500076439    4.46086929933043
H          -9.97519614888422    4.18985494904651    4.55262688822137
H          -7.70202171300214    5.85661317847224    3.34822731864604
H          -8.50498978085528    6.16434932195969    4.88827491328798
H          -9.38195154991869    6.38219249347662    3.37020740409323
H         -11.78158933946160    5.74995666082188    1.83370365784638
H         -11.26526179494148    5.19860535400548    3.40298804366096
H         -13.01757417756742    3.55698570576218    1.52548723736263
H         -13.53958141065926    4.40626381570401    2.98105360054781
H         -12.42320148754193    3.03774466974246    3.10070668289200
H         -11.51226193463195    3.68109527646548   -2.76971081773655
H         -12.60117007249890    5.69272216914177    0.13413752557640
H         -13.75646056436677    3.72047283538493   -1.90640887386920
H         -15.47468239942307    9.31934236445262    1.14944780129317
H         -18.83909694207874    6.74367993949584   -2.22621305612655
H         -17.86571265919153    3.95752340024687   -3.09840729406445
H         -20.45782253557491    5.50200986590644   -3.71803733183096
H         -22.13366249232701    4.06676349517029   -5.13357966578676
H         -22.44268616722583    1.65935851002684   -5.99727967993237
H         -22.22391146685737   -0.65623009093124   -6.51001171369234
H         -21.50285260604135   -3.12993834962869   -6.61880468504351
H         -19.63248625839179   -4.69961811960144   -5.80697468029515
H         -17.54142926192439   -3.23499150699291   -4.08582059442047
H         -14.86397006574890   -6.88334281922505   -1.37347121494633
H         -17.20804277581468   -9.47768821627881   -4.96227222878963
H         -14.08662024338551   -9.39917477386382   -0.41484844572356
