92
 SCF done       -181.891153779199          0.000525967156
C          -2.90464697230701   -0.87782220275281    0.40519074730965
C          -3.05665061595770   -1.96727286641574    1.22699729831809
C          -2.44266337279725   -3.21677309874565    1.00897000152757
N          -1.96907888931622   -4.25625812437113    0.88828621592931
C          -3.82351964402335   -1.99065601826254    2.40923833561174
N          -4.42386839467451   -2.08865212307877    3.38380817852925
C          -2.11252604369905   -0.84854726353293   -0.82097223857074
C          -2.14555818558393    0.46118634167588   -1.35766109480748
C          -1.49094539492506    0.80464985928874   -2.51410162639126
C          -0.78293806139791   -0.19706150064263   -3.18712703980782
C          -0.75826937990693   -1.50369357173357   -2.64619383665833
C          -1.40936018031266   -1.84830291780478   -1.46838055116561
S           0.17929262424333   -2.58617537646656   -3.63287562592901
C           0.51816331659303   -1.28529442230490   -4.74283595822877
C          -0.03944072374396   -0.10148120417080   -4.39561151554912
Br          1.57672682269807   -1.61190935536194   -6.25742795350060
C          -2.93433354540545    1.33402220141510   -0.46140434068226
O          -2.94035584277128    2.54645375421951   -0.47313548633474
C          -3.52144525579086    0.42243791502758    0.55626690577506
C          -4.45524951916841    0.80017336861834    1.47502483230761
C          -5.26846998458406    1.96457443491180    1.34266334610210
C          -5.79285923717887    2.62414526832094    2.45217697296803
C          -6.55335587546420    3.77307416229843    2.34215599517234
C          -6.85917257872052    4.33851572749841    1.10089130333914
C          -6.46025777465626    3.59708691022441   -0.05549801540632
C          -5.67910801364233    2.42423535299274    0.05551771950395
N          -5.40439252971095    1.70587041202019   -1.04556970411701
C          -5.78562618303563    2.14405326445021   -2.21731403379740
C          -6.49883814811688    3.36846928503946   -2.33804911694339
N          -6.83741568064674    4.03466042900358   -1.26320864305660
C          -6.91808524340279    3.91848059902045   -3.65828685109046
C          -5.45631650667506    1.30627549579729   -3.40754665774569
C          -7.58283524244904    5.54747423535167    0.91921015199603
S          -8.37856793492645    5.84501293191630   -0.58617147076204
C          -9.15292849383258    7.29641882196831   -0.00807074089192
C          -8.76715932847442    7.56377647228872    1.32958129892509
C          -7.84040520351523    6.59612417328988    1.82919690380391
C          -7.25548252689831    6.78916311738603    3.09462539561158
C          -7.68094929008132    7.82278261078489    3.88285748044247
F          -7.14011123341066    7.99955961694211    5.09812683020911
C          -8.70191626301540    8.68367220528563    3.44563820669293
F          -9.16067115955141    9.63963151168273    4.27730399165824
C          -9.22592165255547    8.57811085558140    2.18630968459928
C          -9.98179485994849    7.98672252134456   -0.90024654792313
C         -10.43301099634014    9.27733096896347   -0.75276339137934
C         -11.33490272824597    9.93178182867073   -1.58672169961783
C         -11.75068694569392   11.22422296965915   -1.30888767974528
C         -12.67998807631174   12.04099027577778   -1.98445412975005
C         -12.88667918101302   13.26253859522038   -1.39728603378180
C         -12.12263937826766   13.46286272758136   -0.23445556701133
S         -11.13286180118410   12.06554135175756    0.09537771871364
C         -12.02939088699654   14.53135203172109    0.64869585046841
C         -12.67365654725091   15.78166890443570    0.69721941477221
C         -12.28210967969367   16.55460709063254    1.75416432980703
C         -11.30195148137994   15.95531908973214    2.58695951255272
S         -10.91310175143767   14.36507677572063    1.97701802850240
C         -10.73203209490077   16.49971477175087    3.71318235969994
C          -9.73388872577179   15.92030881115143    4.52174181629758
S          -9.23798856406524   16.73696401083062    6.00133509283195
C          -8.07276599142741   15.55093615244479    6.43040287785161
C          -8.04141800949404   14.55046219375584    5.48761368891857
C          -8.97360595954713   14.76333416066003    4.42385268698576
O          -8.87960949328520   13.76803708503588    3.51847241552437
C          -7.91998375332853   12.92849112363303    3.98244521348024
N          -7.62494882770314   11.79593402310303    3.18821947286208
O          -6.70738310857155   11.08758386244729    3.55615912552565
O          -8.29399911127193   11.60895802643728    2.19255530753342
C          -7.36896209518355   13.33746133276458    5.16681440961369
H          -1.52577147989961    1.81495134895287   -2.89067964946509
H          -1.35408858409985   -2.85687804988617   -1.09437445330904
H           0.07056564706781    0.80350333829729   -4.96478860250611
H          -4.64305142765742    0.17864382177329    2.34055562671547
H          -5.56245749766841    2.24019118983214    3.43560582377293
H          -6.94678722242916    4.21765468158070    3.24099663197769
H          -6.04416922482677    4.12354161751085   -4.27476795607173
H          -7.47357390943280    4.83854916409342   -3.50267223217888
H          -7.54305581975482    3.20187639046048   -4.18906361386014
H          -4.83087125499671    1.86715668341594   -4.10035072623834
H          -6.36462055619686    1.01491902094857   -3.93296695495287
H          -4.92430590664751    0.41496590579124   -3.08623081228035
H          -6.45241586907900    6.16516222000384    3.44668548639865
H          -9.99141436568722    9.27477314061915    1.89465142237828
H         -10.25358040859659    7.44716825201353   -1.79997965821326
H         -10.04256756513302    9.86293237052776    0.06598147781957
H         -11.75061458850087    9.42508341459895   -2.44681543962792
H         -13.17615871950826   11.71061837528768   -2.88037881714562
H         -13.56314133940443   14.00972062309231   -1.77321108571318
H         -13.40164871431395   16.08070539343342   -0.03604306740936
H         -12.66256285282393   17.53983741217444    1.95912022471380
H         -11.08462347889693   17.47275830146587    4.02696039078636
H          -7.49632827246019   15.66110089107079    7.32472501624435
H          -6.60050319753780   12.83320251913889    5.71482140106942
