101
 SCF done       -183.674282824249          0.000384937073
C          -6.21685447867374   -3.10706988359554   -5.18762477084395
C          -6.08656598318641   -3.23864748022691   -6.54831892771683
C          -6.61661469615568   -4.31065438809480   -7.29531142049354
N          -7.02661708098530   -5.15144918742634   -7.96127960666024
C          -5.42006450944778   -2.32708758144376   -7.39182877172193
N          -4.89619109509013   -1.63064058878684   -8.14057126112364
C          -6.88465116516002   -4.05328486286554   -4.30257718731785
C          -6.81961330160159   -3.56572849700843   -2.97361958053311
C          -7.35898518976974   -4.24220564870678   -1.90736071441505
C          -7.98403495090422   -5.46762461575833   -2.16110128503740
C          -8.04537141138953   -5.94784241817142   -3.49149359870857
C          -7.50716703775801   -5.25911837276457   -4.57118420119131
S          -8.86520177979928   -7.47713768859650   -3.58115447435996
C          -9.10890793377980   -7.45224946631209   -1.85468370104656
C          -8.60398175190619   -6.35596190592400   -1.24053948752239
Br        -10.00913712436385   -8.87361633579242   -1.02737963996293
C          -6.11672994567407   -2.27076536669550   -2.95848976777417
O          -6.04683702597345   -1.49539993598746   -2.03325099109504
C          -5.67350658522225   -2.04447014758724   -4.36576937060159
C          -4.98052078656661   -0.94938231985749   -4.78509711494887
C          -4.24509544617422   -0.10020247992039   -3.92068461237423
O          -3.96520577683605    1.17361823705141   -4.32112532871887
C          -3.60603436487466   -0.32334411758485   -2.71558221070587
C          -3.26114013391339   -1.35023844015969   -1.72036352344040
O          -3.50256771967590   -2.52749231391934   -1.67710591173521
N          -2.47912201598546   -0.65897296676965   -0.80030713243272
C          -2.22646564990442    0.67721961435107   -1.11009453194043
O          -1.55817506498245    1.42790376551030   -0.44945362235532
C          -2.94183705163198    0.87584431782066   -2.37337724287549
C          -3.19195502242814    1.78299626158085   -3.38797015295026
C          -2.75248678515847    3.12526092292962   -3.55520199378787
C          -3.03938161026682    3.85742881024674   -4.65188028849205
C          -2.63372113805094    5.23197731052469   -4.82206979043147
C          -2.63440128750748    6.07817816619321   -3.74721241944572
S          -2.22862890872731    7.70071759007749   -4.11003092736048
C          -1.98147371563952    7.26473116414306   -5.77419560567281
C          -2.23522126657362    5.91010290981964   -6.03671427851803
C          -2.01788422438778    5.42063693631916   -7.34681481080353
C          -2.28833615853475    3.96620178150142   -7.62975311493548
C          -3.75174053539551    3.73554341774081   -8.01930225801941
C          -1.57817031080945    6.27308698461073   -8.35268536461203
C          -1.37285009761155    5.75587298876712   -9.75260305908829
C           0.05203167290296    5.22963819325895   -9.95143275852048
C          -1.31128627032034    7.63600594506710   -8.07644290717863
C          -0.86129629859341    8.71520260520280   -8.93347225887718
C          -0.82684015272898    9.90639943986175   -8.26017671978052
S          -1.26743003505884    9.81857691303989   -6.60639114992597
C          -1.55206542221849    8.11483202998692   -6.77842261962480
C          -0.41467576154335    8.65205151494119  -10.30277548839774
C          -0.52469470425741    9.67704042209663  -11.18389974480134
C          -0.01054139578240    9.62523911110111  -12.49642688498517
C          -0.08928320294820   10.64905565186553  -13.40073479328944
C           0.41412811264084   10.65635125985430  -14.72742190460166
C           0.20852018921299   11.82000131945402  -15.39924555724294
C          -0.46944525839634   12.80814045986028  -14.64592188234366
S          -0.84346819920216   12.20025730002328  -13.04752266027122
C          -0.81115196960768   14.08367200783639  -15.04173277257980
C          -0.56582776448885   14.69769173388917  -16.29331467228782
C          -1.01683699322638   15.97585412559045  -16.37693347016939
C          -1.64818084610904   16.45570005613059  -15.19623995898289
S          -1.64442092832726   15.19624411959968  -13.97232389450262
C          -2.17487078631890   17.70563273774028  -15.03144602657818
C          -2.80930978782072   18.23926849848797  -13.88910601518472
C          -3.31842567022490   19.51581971610375  -13.76853227224282
C          -3.89811285597068   19.77007100460531  -12.51154171374997
S          -4.60347269235316   21.34024689241692  -12.15635249090763
C          -5.22151689798943   21.10586150110811  -10.46726392540808
C          -3.83229645729200   18.69173477371863  -11.67384504038380
S          -3.05834176054573   17.34404701700817  -12.41067907755392
H          -7.29058009924508   -3.84244282946291   -0.90815580975921
H          -7.58302934161435   -5.66644673544409   -5.56550472153245
H          -8.66510332540368   -6.17904193998026   -0.18225289082563
H          -4.94524266027670   -0.68356864432577   -5.83293502959284
H          -2.09674242615978   -1.10299896966063    0.02252739445862
H          -2.13723335005723    3.50821841353070   -2.75499699662366
H          -3.64478178409906    3.40207315305929   -5.42006550514040
H          -2.91897381026465    5.82830349062536   -2.74363102021847
H          -2.04031513477632    3.38360487723086   -6.74157339119345
H          -1.64772526591323    3.60203355850703   -8.43025196238519
H          -4.42669049971407    4.16823557231254   -7.28400600701115
H          -3.95753324669900    2.67078499240792   -8.10392947013946
H          -3.97145999310321    4.20383227990814   -8.97614891995208
H          -1.57753946004477    6.56071721152313  -10.45891499000685
H          -2.08078485174466    4.95866589143764   -9.97256798067946
H           0.78863912485742    5.97592822392949   -9.66191628466721
H           0.21395640154383    4.96018096677737  -10.99308390560954
H           0.22639977450156    4.34797869478697   -9.33908535499982
H          -0.50320065234345   10.85046143183568   -8.65249971682230
H           0.09385610115899    7.75946630155096  -10.62996486446446
H          -1.04431778899622   10.58302725626511  -10.90107155388547
H           0.48961904262320    8.71906428925459  -12.81361358099159
H           0.91366255859563    9.79610062184541  -15.13734801236792
H           0.52483361257059   11.99865002234130  -16.41123282739779
H          -0.06481495611771   14.17953532144643  -17.09117632793388
H          -0.92047034092776   16.60142479852140  -17.24680741191854
H          -2.10114626661169   18.38079232435594  -15.87470199263540
H          -3.27857976451644   20.24821965817234  -14.55381811510571
H          -5.68715291051370   22.04528848975950  -10.18649043644707
H          -4.39358745202433   20.88760350641463   -9.79916995253193
H          -5.95774688860861   20.30756414359730  -10.45388557103686
H          -4.18660409105730   18.59317310866595  -10.66842407670591
