119
 SCF done       -200.796982797368          0.000840794899
C          -4.62842923237686   -0.91311507068702   -1.20028878160079
C          -4.78717300675839   -2.10257468507372   -0.53302261556624
C          -3.73569349063963   -2.99330962914547   -0.24194056880739
N          -2.91644035716713   -3.75383125284363    0.02099697564308
C          -6.02434341185766   -2.58108186750201   -0.05897882565696
N          -7.01291029511152   -3.00921846549443    0.33914987271193
C          -3.36690989258353   -0.38419699333040   -1.71297052753934
C          -3.61375904193174    0.86198061986830   -2.34461007003130
C          -2.62319840170303    1.60780390667816   -2.93496082584703
C          -1.31994856828752    1.10113467918316   -2.90051321730409
C          -1.07962331493639   -0.13975927756933   -2.26463285844190
C          -2.08375867319112   -0.89453854332297   -1.66808956069650
S           0.60028094421838   -0.57684890176174   -2.33357770357599
C           0.95123133249812    0.89193574143498   -3.20578888524861
C          -0.13230039704559    1.67152810110944   -3.43407434534553
Br          2.71386219368230    1.25786527851169   -3.73370654922774
C          -5.04571349700001    1.16594731577006   -2.24738366472891
O          -5.62486187618168    2.15576805763674   -2.68503436655840
C          -5.65699515534892    0.04423450972974   -1.53126223122295
C          -7.00734696352988    0.00632319479866   -1.27040709679568
N          -7.79728639335820    1.00917574117442   -1.66830301949764
C          -9.13359835233912    1.13861640252033   -1.46493350509249
S         -10.02166918317249    0.00655405175235   -0.48920296699877
C         -11.43862780267544    0.98702684304545   -0.68080317543325
N         -12.62066434965780    0.56095205204071   -0.06475371849986
O         -13.60948901585603    1.25970420923726   -0.19614350584015
O         -12.56882337364152   -0.48205857910554    0.56422462420807
C         -11.23081771478187    2.10873319808959   -1.44006101154838
C          -9.91349886441381    2.20689938082442   -1.92184888133453
C          -9.45248567006225    3.30647994897134   -2.74064358717581
C          -8.48992369027600    3.23330684494268   -3.67454739120289
C          -7.93196374787227    4.33420754149049   -4.42820625707416
C          -6.74692138276744    4.09849734158121   -5.14271608377359
C          -6.12916252409181    5.13415255607404   -5.79769051335382
C          -6.69096817224620    6.42154152033996   -5.78117398551795
C          -7.88333577840683    6.65885517613184   -5.11037926440136
C          -8.48963935204084    5.61836540254559   -4.43791842878486
C          -5.81246645327865    7.31472396958215   -6.49876249503498
C          -4.70349467528065    6.58323600106801   -6.96461532810963
C          -4.86044844093758    5.11667016978051   -6.62513810262528
C          -3.65923731010501    4.56508840062724   -5.84400013308792
C          -3.46986622478995    5.27038059845333   -4.50515664879350
C          -5.15894902491591    4.26981006879426   -7.88496068630031
C          -4.06736028719844    4.25338470957422   -8.94681996017140
C          -3.67067513818627    7.22859963582153   -7.59763457946186
C          -3.72913860909465    8.61949572089510   -7.81043850038972
C          -4.86538221325870    9.32058404603985   -7.37234891313453
C          -5.89517003856117    8.68344447860980   -6.71693115889199
C          -2.62532705386273    9.26708294659004   -8.46013926522275
C          -2.46977782430750   10.60845080421226   -8.61869989530562
C          -1.37796659028183   11.22073358516574   -9.25713176493942
C          -1.24381024229761   12.58354979584263   -9.36629379975630
C          -0.20152255056005   13.31215665683201   -9.98551783983935
C          -0.34735920109939   14.66738007988955   -9.92096882265880
C          -1.51098434082396   15.08611799121936   -9.24416945657373
S          -2.42576700933176   13.70132767848891   -8.69711239118203
C          -1.94729076415407   16.37473601049265   -8.98595110797585
C          -1.34682139567346   17.59783026296272   -9.34063911643538
C          -2.03839418847335   18.69376731519095   -8.90991770331342
C          -3.21809674893636   18.39534656191370   -8.19316892723883
S          -3.42618521089816   16.66007745628016   -8.09200955046142
C          -4.08412747915573   19.31511790422898   -7.63756725286581
C          -5.24491680921563   19.06063327893014   -6.91466607395659
S          -5.84085083360861   17.45845968612901   -6.60256540095775
C          -7.23528279942298   18.03085652758307   -5.74451520738861
C          -7.22360761142302   19.42926700532005   -5.65566808489064
C          -6.11092734173743   20.01718347224796   -6.32724602759475
C          -5.96583307593226   21.40661544106281   -6.33428255861197
C          -6.86892966453495   22.21901422593004   -5.67948118627393
C          -6.69562641840771   23.66868366349735   -5.69485685149039
C          -6.16850222958079   24.35739077489787   -6.69955305438372
C          -7.94866040137733   21.63170901726220   -4.95952922631625
C          -8.91877582715843   22.49750149911928   -4.21354565791477
C          -8.11079590866234   20.27204297999186   -4.95730675922666
C          -8.16515708565461   17.04550385109070   -5.28282142514168
C          -9.45423349486318   17.22368626246129   -4.98431832405424
H          -2.84603747194426    2.55226837359497   -3.40562928236610
H          -1.84831608790997   -1.83411044713603   -1.19711393658879
H          -0.09705897534110    2.61001460348329   -3.95655512842976
H          -7.47596435806128   -0.82099487241030   -0.75352850089209
H          -7.30072810885908    1.78591390296812   -2.14018986753540
H         -12.01150790991225    2.81710415867895   -1.65104571352156
H          -9.96577616107622    4.24025096687151   -2.55956459799742
H          -8.04919841816471    2.27326015428492   -3.90894970811726
H          -6.31254544149458    3.10974341511129   -5.13214062269719
H          -8.32541104354223    7.64395712925534   -5.10707466504277
H          -9.41575376771796    5.80073240274696   -3.91486801120799
H          -2.75743513727955    4.69086609730484   -6.44546030837004
H          -3.80788652111100    3.49541412649244   -5.67767375009574
H          -3.40951428330879    6.34735109194217   -4.64751806089693
H          -2.54890131836023    4.94065465627543   -4.02723663937421
H          -4.30205432673651    5.05776112829901   -3.83777573942709
H          -6.07857090283211    4.65340173008566   -8.33490807940373
H          -5.35540633264154    3.24606482948244   -7.55756579568803
H          -3.91001959535923    5.24781978123110   -9.35509143868287
H          -4.36780927045454    3.59808701352852   -9.76178490690841
H          -3.12810197023665    3.88146507874106   -8.54573690990931
H          -2.79018897936372    6.69134449199641   -7.91927544200007
H          -4.93538977290926   10.38264991408051   -7.54603942239538
H          -6.75158318584839    9.24291149391482   -6.37093711807609
H          -1.84663180999026    8.61451271612727   -8.83709290222745
H          -3.21790629053880   11.28473100174411   -8.22724739714815
H          -0.60152025591365   10.59967552428227   -9.68370643585953
H           0.62500006429414   12.81218467072339  -10.45939720491416
H           0.35051983382186   15.37155537938405  -10.33784402995570
H          -0.42841641167272   17.64248768736606   -9.89804499826883
H          -1.73229454900011   19.71043254476883   -9.08479633743498
H          -3.82159855773591   20.35553674870014   -7.77730890708396
H          -5.11951345786721   21.85288242931155   -6.83301357049186
H          -7.03867178255075   24.19838778810892   -4.81661032789867
H          -5.84782532454441   23.88590949381420   -7.61357616706598
H          -6.05749841662006   25.42714770731605   -6.65292149563762
H          -9.34499393785092   23.25338589121285   -4.87146141391820
H          -8.42283938369695   23.00816709422628   -3.38793469943562
H          -9.72762672271410   21.89758779137679   -3.80378698938753
H          -8.91480830319211   19.83461931212107   -4.38792656775906
H          -7.75372662400250   16.04411108512382   -5.23010096017795
H          -9.95270272586929   18.16977904507911   -5.09047890616350
H         -10.06140101399117   16.39729798443883   -4.65851128825574
