98
 SCF done       -206.512436548654          0.000637875834
C         -10.44243388396632   -1.60123581243555   -0.22659758585556
C         -10.58318258704316   -2.46188688397100    0.83358802935941
C         -11.05327428948663   -3.78608320918201    0.72079943843614
N         -11.44412535523465   -4.86573864667054    0.69991535934401
C         -10.27124183502949   -2.15636661253187    2.17445348527102
N         -10.02507402692162   -2.00216525897968    3.28563454002440
C         -10.67176053007309   -1.93916440491893   -1.62819475046197
C         -10.35908569583144   -0.81055639044482   -2.42291618223818
C         -10.47141199558388   -0.81380199075207   -3.79213358058635
C         -10.91335726466063   -1.98945960373065   -4.40663225688816
C         -11.21169864131108   -3.11447939361402   -3.60470040642339
C         -11.09975396029234   -3.11144060570355   -2.22029588081332
S         -11.73159264743580   -4.46360133885854   -4.56590616816705
C         -11.54924601130807   -3.50948305926293   -6.01178810363836
C         -11.11584182844061   -2.24534902576868   -5.79172502925487
Br        -11.95099019435972   -4.27672661230691   -7.67853229179556
C          -9.93820682213881    0.30187169017556   -1.55004516960988
O          -9.74017999665037    1.44791432934791   -1.90612434874354
C          -9.95848500632319   -0.24056658887131   -0.16873979929676
C          -9.70143260666812    0.48897949856801    0.96532998118716
C          -8.94195392634932    1.67951457230230    1.00408934403248
C          -7.90647726001588    1.94588302981205    0.07567926398986
C          -7.25675776464512    3.22888968449633    0.00442364455836
N          -6.32451049347922    3.43515593139011   -0.91628092623023
C          -6.00089664426593    2.47831789236857   -1.76846170438708
C          -6.60172054199938    1.19508244845476   -1.64820419863547
N          -7.50415806670323    0.95571477993177   -0.72896370242877
C          -6.26731095593834    0.17183781834825   -2.56836773950186
N          -6.03109464839700   -0.59621549250476   -3.38556835482514
C          -5.02921080508164    2.71576958253429   -2.76471169947931
N          -4.24246342834042    2.83895540473362   -3.59038862609394
C          -7.57554779340992    4.29665976044906    0.90017250929312
C          -8.43789914830337    3.92642493244757    1.97702652020189
C          -9.11445815415433    2.65410762988438    2.01899789140682
N          -9.92813756015898    2.56074144100331    3.06482785025519
S          -9.83716962269647    3.91711201128463    3.92704827918524
N          -8.78084813902397    4.70419486270359    2.99645514479230
C          -7.19264055207302    5.63166588539951    0.76448089796261
C          -6.63366759808620    6.30436698510773   -0.31524046609343
C          -6.53113682683978    7.71274327886199   -0.39625212080801
C          -6.18236372872768    8.19434482855029   -1.63276775605165
C          -5.99176677454076    7.17363921568454   -2.57277708102971
S          -6.14790582905389    5.59713906041928   -1.82612362743278
C          -5.77232671057228    7.17710344910417   -3.94928300197033
C          -5.46943168411687    8.18808654525848   -4.87764727600173
C          -5.36055591385565    7.73119440494261   -6.16521486135022
C          -5.58917073442561    6.34351001095711   -6.31069769487903
S          -5.92508453641064    5.63805891557151   -4.75207323803611
C          -5.59528057343378    5.59072521570796   -7.46906128438239
C          -5.87384543960079    4.22353242941679   -7.53484442417756
S          -6.27362845049580    3.24169692237022   -6.16036521701199
C          -6.45517010987485    1.81004527330706   -7.13196283796316
C          -6.22172536149796    2.09249915100518   -8.48550719133270
C          -5.89515289403288    3.43721136786726   -8.70693745540943
O          -5.67666188073040    4.05279188420846   -9.88841509740681
S          -5.12954663202941    3.17540330860615  -11.20000911237964
C          -6.44211628537553    1.93218619900315  -11.20062722214133
S          -6.32290932872052    0.86390595932556   -9.73058989491415
C          -6.86590326049239    0.65374812384327   -6.44939282698674
C          -7.12478823046011   -0.58731627891787   -6.95362824554240
C          -7.64706984131863   -1.59662411954264   -6.12198874529136
C          -8.16304456311816   -2.80418662505911   -6.49682103627296
C          -8.45457868845570   -3.36192439676431   -7.79669453911791
C          -8.81174163540768   -2.66661590860993   -8.92578437912608
C          -9.06889179340242   -3.26696855463626  -10.17500085416892
N          -9.24724404807542   -3.69102278907790  -11.22669155470640
C          -9.08890777637332   -1.28625075951699   -8.94422851325607
N          -9.40300035137266   -0.18235214503354   -9.00096813779472
C          -8.56158998845930   -4.80842714694003   -7.63374196415066
C          -8.58869599580153   -5.10560525131897   -6.24658269219556
C          -8.40438875878127   -3.85898284368624   -5.47965283722271
O          -8.44804400122767   -3.71370358194380   -4.27745200725163
C          -8.78676207583438   -6.37793763376151   -5.76858462218874
C          -8.94476865621750   -7.40749642008027   -6.70187052246634
C          -8.89092543511006   -7.10366875088371   -8.08369289852357
C          -8.70501183116576   -5.81501682617267   -8.56840232715806
S          -9.10241576287434   -8.52408797141671   -9.05869183630489
C          -9.26260513401185   -9.49401642215795   -7.61828948332886
C          -9.16223593480339   -8.79200487813763   -6.46465439024539
Br         -9.54129750361101  -11.34098791537923   -7.77447178136623
H         -10.22589837012474    0.06047667533223   -4.37527845741471
H         -11.34163535580795   -3.99564706943796   -1.65492663336185
H         -10.95364453709903   -1.51744138707082   -6.56718135073168
H         -10.11022276639711    0.16865805514416    1.91520841758908
H          -7.48866791937165    6.25975572933805    1.59725322101072
H          -6.75883259972877    8.33844814301380    0.44924627165756
H          -6.10441160366738    9.23969535735550   -1.87537961079827
H          -5.33082366683292    9.21355661907578   -4.58468044753386
H          -5.13064672299566    8.35553640424849   -7.01063535607553
H          -5.37850467660828    6.08514338721594   -8.40646065508800
H          -7.41387098761301    2.42129741978780  -11.22064775024179
H          -6.30246115368493    1.29544173641286  -12.06882646118120
H          -7.03904803117973    0.80315124144444   -5.39038916109036
H          -6.93744657448765   -0.80155569267696   -7.99431251345449
H          -7.59424706318241   -1.42767661235520   -5.05088128683844
H          -8.82521801070237   -6.57220409033502   -4.70811581973531
H          -8.68073042887649   -5.62884839941332   -9.62915036348335
H          -9.23750028901496   -9.22991508231580   -5.48612266169292
