118
 SCF done       -233.934484192263          0.000737962805
C          -6.44720121546006   -1.06755657253659    8.07235210096048
C          -6.18671543856091   -0.26581152063332    9.15304489439771
C          -6.35625233670965   -0.66563139073187   10.49632335039811
N          -6.46695057987976   -0.92761255298686   11.60825159132100
C          -5.73778590598587    1.07010376327291    9.09884812999955
N          -5.38958677946412    2.16464880755743    9.14114111445426
C          -6.96083943601743   -2.42912432053314    8.13848879259625
C          -7.13899003980258   -2.91697911275028    6.82112494533487
C          -7.63223068830266   -4.17088023581897    6.55331673499062
C          -7.95891880679584   -4.98917447799702    7.63901909304805
C          -7.77399779248919   -4.49608285992050    8.95366997917528
C          -7.28104731657796   -3.22649477683037    9.22365443196447
S          -8.24192581762506   -5.66911303052939   10.14738242083826
C          -8.67312156954810   -6.78939979980006    8.88279766186631
C          -8.47751377363481   -6.31242756203206    7.63015928043040
Br         -9.34112264860416   -8.48204533622102    9.33511946054049
C          -6.72579470891897   -1.88611308356823    5.84783472923754
O          -6.80442639946660   -1.96710127966017    4.64373136815886
C          -6.26827813368919   -0.72820827910927    6.66568027858349
C          -5.87391255525709    0.47945202230380    6.18976372472743
C          -5.57623616653656    0.83163283499543    4.82284944197664
C          -4.84108938420564   -0.03993657309633    4.00181191946490
C          -4.43198603305708    0.32029729115579    2.73890618193222
C          -4.78296584650574    1.55620674352513    2.20227574131084
C          -5.54722127529563    2.40896005828664    2.96379615244940
C          -5.90344807282888    2.08100628775273    4.27986696435939
N          -6.60594650971047    3.13770355367972    4.84054060788841
C          -7.19249199594018    3.22079345959124    6.15289229878418
C          -6.71870942861418    4.18647880722683    3.96415969097186
O          -7.26365281808955    5.23249059676522    4.22542407701831
C          -6.10048018188863    3.76193818410640    2.63411976255099
C          -7.22380373408057    3.76751561043223    1.56196668416644
C          -6.99899970616686    2.79633212663958    0.39751532412142
O          -6.88890843804855    1.59461826263531    0.44989399405388
N          -6.98271332182101    3.52692146617348   -0.75796485276178
C          -6.82439869276351    2.93835377990524   -2.06025421664661
C          -7.20915411637686    4.87391071731664   -0.51566225091671
C          -7.29847010323602    5.90860983957171   -1.41983018910332
C          -7.56979433215810    7.19886065616394   -0.93742439275956
C          -7.70491169247653    7.40182052200609    0.44073720951516
C          -7.59976685415654    6.35496673761396    1.34287163175186
C          -7.36497917643640    5.08486538317443    0.86044364313149
C          -7.71784688756549    8.26684040069969   -1.89837870433955
C          -8.22121841033948    9.49368021195646   -1.65335585707179
C          -8.40020633402658   10.48698407161033   -2.65495170300845
O          -7.99255942759211   10.29772538815397   -3.93909180424972
C          -9.00456328745769   11.72677253623566   -2.56844408673939
C          -9.66847535052329   12.66346544208262   -1.65530559802460
O          -9.89525113133203   12.59233964842858   -0.47748002199490
N          -9.99517074095632   13.74186224427910   -2.47783640571463
C          -9.63655247318964   13.60216684145485   -3.81240043103533
O          -9.86725904276682   14.40373488602541   -4.68525588499996
C          -8.97176524611871   12.29661528097399   -3.86057601122543
C          -8.33166594671780   11.38765615773273   -4.68864360456862
C          -8.02004647504470   11.48139057501953   -6.06147944127192
C          -7.28259474401563   10.55470593702103   -6.74341165121109
C          -6.92936721653475   10.58672386319025   -8.10473963126572
C          -7.35667718062561   11.44505742452368   -9.09234926883213
C          -6.92783371123315   11.41109091823678  -10.44615588788460
C          -7.52143539116154   12.33338094423781  -11.25412776770673
C          -8.46377259586301   13.14371896661420  -10.58365906572701
S          -8.54997350222437   12.71109350123521   -8.89547015139800
C          -9.28957272107369   14.13902771498351  -11.07540002438965
C          -9.44413211562224   14.65410021148722  -12.37873453968240
C         -10.43703040597839   15.58503298665942  -12.47925509627372
C         -11.13322116112170   15.83465043645926  -11.27020684860258
S         -10.43557518864181   14.88785881032935   -9.98901614411917
C         -12.15641050939024   16.75197951188856  -11.08910619593565
C         -12.87518826541351   17.02456721233936   -9.92806618632603
C         -13.04754646707688   16.29495883322906   -8.76167116193458
C         -13.34721892849814   17.03298418998106   -7.50871501432238
O         -13.65235472566286   18.19571927393325   -7.40307318924680
C         -13.14987026385980   16.03400862470763   -6.42189100580300
C         -12.91261775607508   14.77245586500417   -6.99436986806299
C         -12.95812289925212   14.90503420698853   -8.45171665044871
C         -13.03512045549024   13.84911268990455   -9.33662674683639
C         -12.90222996666695   12.49539385577850   -8.97917106047475
N         -12.75793345908733   11.37597150894957   -8.76429829614064
C         -13.30984914989799   14.00893282681577  -10.70707316857068
N         -13.54139060396220   14.09461298666623  -11.82869195912751
C         -12.67310464425077   13.66423275282369   -6.20428341832859
C         -12.65954913526435   13.84170880329681   -4.82960442148825
C         -12.88035467424893   15.08222385275167   -4.24412852805468
C         -13.13579583742597   16.19479879401922   -5.04971449653786
F         -13.34852124628888   17.37615385429399   -4.47694239064209
F         -12.82435052514968   15.21374320105471   -2.91098578739309
F         -12.41179252896672   12.78691686209408   -4.03990264365183
H          -7.76007556125394   -4.50839599178968    5.53674906736486
H          -7.16323942403677   -2.89792402466905   10.24248562173645
H          -8.69059759542313   -6.86911132605595    6.73594636998688
H          -5.72939758703321    1.27228047909594    6.90789453265285
H          -4.54708320348379   -0.99616787335415    4.40256137080219
H          -3.83658966411596   -0.36421793602203    2.15613742486144
H          -4.45916762978824    1.83264405294871    1.21216349874527
H          -6.43759145572297    3.36502996760924    6.92886096392747
H          -7.77342939929239    2.32199639025117    6.36502186184599
H          -7.85158294719059    4.09023032366193    6.15051019317372
H          -5.32094117950198    4.46378370296985    2.32503742418991
H          -8.16030292574697    3.47394426606801    2.04981951676243
H          -6.70498380090311    1.86455004768907   -1.92030252496134
H          -5.94121230830443    3.34265893285327   -2.55895409993930
H          -7.70533317345360    3.12754418524183   -2.67674873141535
H          -7.18643740707618    5.73820157253822   -2.47953466650906
H          -7.88882819414855    8.39517195341293    0.81571046481808
H          -7.70312640602732    6.52437531632306    2.40283475793894
H          -7.43139940942100    8.02985874451588   -2.91546623404310
H          -8.56304760615474    9.79123730968889   -0.67390330145867
H         -10.50802683928149   14.54082618653127   -2.13010181750139
H          -8.38583781807334   12.38038883567436   -6.53193664462513
H          -6.90441699383571    9.71338038010508   -6.17730846799851
H          -6.23620840006023    9.82199083203153   -8.43330385710483
H          -6.19241316428413   10.69995211485569  -10.77942946646702
H          -7.32041386181988   12.44413827235396  -12.30436100812786
H          -8.83383167324713   14.32471752037569  -13.20017538143735
H         -10.71300323696859   16.08179386499875  -13.39202103482582
H         -12.35104126280218   17.39517019020144  -11.93789309054618
H         -13.32443118628671   18.01285007636323   -9.88017185682392
H         -12.47574013496950   12.68557178136945   -6.60821256892880
