92
 SCF done       -181.368253101418          0.000929366935
C          -8.31279350840703    2.66868210086910    0.24059656016015
C          -8.84050586860804    2.21631748420177   -0.94439528757966
C         -10.21278449093582    2.08236667418334   -1.18965205471205
N         -11.32499488195141    1.90672862941191   -1.43125964861069
C          -8.07901961069185    1.71759864344037   -2.02210527617998
N          -7.52713814223936    1.30587538672529   -2.94091477433934
C          -9.06470446553599    3.16272502032021    1.38922908625866
C          -8.16115417573759    3.37803053060022    2.45754719697999
C          -8.55074984372643    3.91453481088566    3.65877110802748
C          -9.89594747183898    4.27127103858573    3.80735529521750
C         -10.79250983990266    4.04340528130154    2.73890052913495
C         -10.40126505565029    3.48132639095301    1.52864507095113
S         -12.39408111067613    4.61187465725043    3.11638341410472
C         -11.83685533325235    5.14299551609365    4.68304626332015
C         -10.52744361803462    4.89865975741443    4.91850437988599
Br        -13.03360944383356    5.99760393813131    5.84544114614843
C          -6.79286326003625    3.00306741169798    2.03140897079588
O          -5.78363714610670    3.07282185763002    2.70044977722881
C          -6.91863919640674    2.64803001505959    0.60096421769062
C          -5.86149276030189    2.56188105995161   -0.27471357661507
C          -4.51525808670882    2.32533172542416    0.04515019826293
S          -3.29802275233931    3.03405085674510   -0.98750942839052
C          -2.05913418622282    2.37448668374592   -0.00970422782104
C          -2.51104845727345    1.60100394426748    1.01588565857155
C          -1.56249309136790    0.94262847256093    1.96192283077981
C          -3.93872425683428    1.53168681946901    1.05518767931425
C          -4.76381714896461    0.68016758355180    1.84494309400356
C          -4.41454252857455   -0.20402535206436    2.81042245141994
C          -5.38613540975404   -1.02091680187627    3.45043364838446
C          -5.07402643827909   -2.08235030875268    4.22490155754525
N          -6.02727748937053   -2.85885893554982    4.81626561169531
C          -5.85295943767335   -4.09524794989968    5.39451412235111
C          -4.65213891677008   -4.69266161385547    5.66337033116852
S          -4.82294784908336   -6.21286989791938    6.44416887702673
C          -6.52950767622961   -6.07845915484364    6.40920240722826
C          -6.95386924206775   -4.92128469731712    5.82106108544792
N          -8.30022644250155   -4.59328284343466    5.71784655611312
C          -8.88265235811024   -3.82205118800881    4.75683789789597
C         -10.11805047411048   -3.29141785925291    4.89608648163641
C         -10.74883055685030   -2.38253186901997    3.99497063265509
S         -11.94432954559349   -1.29925516661236    4.63640885960058
C         -12.08663139523874   -0.44782488438010    3.12409028307520
C         -11.27151400803916   -1.02583785944738    2.16254838265255
C         -10.50833527489057   -2.10502165834807    2.65384277271148
O          -9.69078155270038   -2.81180659529104    1.84555336713228
C         -11.06874786550396   -0.42441173507676    0.81708215611818
O          -9.98010853777406   -0.24360265975562    0.33647560085671
O         -12.20930842863308   -0.06997809556379    0.24283081425403
C         -12.96137000241342    0.65718490877828    2.98847876956500
C         -13.33427104653115    1.52216675403734    3.96952898391636
C         -12.74607527347871    1.82276641109261    5.25647138392504
C         -11.41405569449153    1.74896977998050    5.57979904246899
C         -10.87562543089090    2.24908096922182    6.78157237418736
N         -10.38016393771030    2.65059634972275    7.73655189217446
C         -10.40202044349681    1.27288604914104    4.72305247370499
N          -9.51672376138425    0.93937012844054    4.07106520138897
C         -13.75321129474430    2.52927588607709    6.03782288073258
C         -14.83068459511503    2.87621647229426    5.18322949217809
C         -14.57653567294960    2.33309908040021    3.83297338824914
O         -15.24572165723319    2.47185189132701    2.83702398806095
C         -15.90871476437152    3.60622213836901    5.61966061209077
C         -15.93036024884783    3.99834185792597    6.96250565718747
C         -14.86233065620369    3.62294765751734    7.81247491079872
C         -13.76703631526449    2.89188716689015    7.37043949239747
S         -15.09563165578605    4.20856850433695    9.42898011530664
C         -16.60007470565723    4.94555822269976    8.94937542718584
C         -16.91606645875553    4.76051732051044    7.64576863445193
Br        -17.61382447229814    5.88309235206635   10.21554568417358
H          -7.84073747997694    4.07055943050021    4.45550939557843
H         -11.11917233084851    3.34234267131993    0.73660903744794
H         -10.02165366937956    5.15479837232375    5.83187433839086
H          -6.05908919994984    2.76569944621340   -1.32125466113415
H          -1.03576601673988    2.59594554672429   -0.24583268189895
H          -0.54560892104240    1.26219060231720    1.74490451477080
H          -1.60909925321574   -0.14113672577459    1.86079255595811
H          -1.80094078005720    1.21466574035312    2.98834819709875
H          -5.81377992232879    0.70814551647399    1.58610166714533
H          -3.39296918924980   -0.33816850603003    3.12381021972893
H          -6.42742265085948   -0.78364060388022    3.27311028778481
H          -4.05027591398182   -2.38525199359722    4.38099855216233
H          -6.96803684143494   -2.49144405408699    4.78817859192582
H          -3.66832689043720   -4.32169196649179    5.46660133473957
H          -7.13781182156308   -6.85603379481381    6.82512839956369
H          -8.90067574800791   -4.93780962582443    6.45345991520879
H          -8.27967278111173   -3.65124167973684    3.87683545972461
H         -10.64735906052993   -3.45891994989052    5.82504096144615
H          -9.47470829607279   -3.66310530187382    2.24480300182336
H         -12.05092608955567    0.45992875417883   -0.57684226128920
H         -13.43847232475604    0.78529318646899    2.02319596322587
H         -16.70676055255475    3.87418583575961    4.94561355132718
H         -12.97504517119438    2.62687891164029    8.05130980253429
H         -17.80519237761981    5.14740512282672    7.18268135359198
