93
 SCF done       -186.242446259506          0.000741021403
C         -10.16643814631524    0.26466715824723    0.11092834037395
C          -9.80053708216147   -1.01941965813104   -0.17444277877762
C         -10.67963861889381   -2.12405121714548   -0.12435958733941
N         -11.35054753885512   -3.05431300242748   -0.10011005098318
C          -8.50736598651462   -1.41744289787972   -0.58151922193381
N          -7.48729119022136   -1.81611926341686   -0.92291645820456
C         -11.49508150082875    0.71576445617658    0.49815834442295
C         -11.49745609815939    2.13009683736256    0.60344730332885
C         -12.61976625976976    2.84505914336511    0.94745231205840
C         -13.79433675669601    2.13355779904295    1.20903476646282
C         -13.78250096947002    0.72036852851590    1.10649637390815
C         -12.65136910040666   -0.00245156701417    0.75352562391128
S         -15.33896538204367    0.04082144654051    1.47316010036898
C         -15.97551467231147    1.63965296333166    1.75434175942004
C         -15.07092369704621    2.63349527253001    1.58359826459844
Br        -17.77218054501396    1.84656412557037    2.24670180874204
C         -10.15656969854390    2.65210096482771    0.28247519360899
O          -9.83017439678184    3.80829525610314    0.16262064354993
C          -9.30146307743606    1.44351765038364    0.06849433078117
C          -7.97322727467027    1.51331109404937   -0.10351597129003
C          -7.25507155505817    2.79479237519114    0.00174618857494
N          -7.20294889177629    3.34384492234349    1.21253719961828
C          -6.58944579643640    4.51341806317932    1.29705055430486
C          -6.04069299434915    5.14906839265814    0.19992044608058
C          -6.10831769395457    4.46986406956637   -1.02546838319328
N          -6.70476728822055    3.27249733087944   -1.09694456907016
C          -5.55846990011313    4.96424629665237   -2.26235154015541
C          -5.26982418433187    6.26521886674596   -2.50580770256358
C          -4.75932784432696    6.81114945274683   -3.70824706449946
C          -4.19765442121205    6.16966600805543   -4.77955121709667
C          -3.73999409987795    6.82225853227712   -5.95902287932579
C          -3.16581945390032    6.00184551236982   -6.87489350727331
C          -3.11613772759743    4.64412832878156   -6.47385588546604
S          -3.86109926751743    4.45155800008028   -4.89876138779599
C          -2.56380986416103    3.58968956163406   -7.16607917041086
C          -1.98498013174890    3.61331728050591   -8.45873535130526
C          -1.49985276804244    2.41668284286981   -8.87710077089066
C          -1.65808736546155    1.36567317752112   -7.93316905873203
S          -2.47171675501704    1.97463595190408   -6.49026111870183
C          -1.23709088777907    0.08024777436203   -8.08412857248173
N          -1.42104681013612   -0.89148803600526   -7.14623843304360
C          -0.92594151199576   -2.15189145376421   -7.15640889283671
S          -1.73461687534498   -3.36233089428338   -6.20506401206831
C          -0.64188659699132   -4.56349487553573   -6.82825162611398
N          -0.80838558660354   -5.87450706096838   -6.36385396412009
O          -0.08331147295438   -6.73716827693314   -6.81795342935777
O          -1.68857542373926   -6.04498063043998   -5.53621395933241
C           0.27809698625699   -4.06338567997635   -7.70410287239383
C           0.14906971290104   -2.67090149510043   -7.90197843088179
C           1.07440586555476   -1.88790882937097   -8.66371151068969
C           1.87427681650522   -2.37729988484067   -9.64269750438292
C           2.79137929508315   -1.55346433328523  -10.33478114647505
C           3.70809159313871   -1.91632872378508  -11.27587069746616
C           4.19871252927688   -3.20470559663512  -11.71490720805134
C           4.28980699283748   -4.35118274252932  -10.96833951581497
C           4.85816415258473   -5.55151020067646  -11.44405446070554
N           5.30080446217522   -6.55399226738374  -11.78507103016127
C           3.92607879242812   -4.44806652489522   -9.60941173131988
N           3.67997279330685   -4.56557639148410   -8.49422415752407
C           4.80109712683358   -3.01030522439913  -13.03119821680815
C           4.88611355974097   -1.61930198876810  -13.29366865465689
C           4.27482954173739   -0.87641423414482  -12.17453796547650
O           4.19302334061730    0.32346768083568  -12.03444540216747
C           5.44017519395710   -1.11874482696193  -14.44674858720033
C           5.92091462350758   -2.03257279591500  -15.39053307562987
C           5.81739015904520   -3.41922070438495  -15.12564038217798
C           5.26593699057077   -3.92623963741898  -13.95514055246085
S           6.45736892508585   -4.36918033809469  -16.43147199197343
C           6.85285757196383   -2.91153766530444  -17.30305449191301
C           6.52345854235155   -1.77097010728862  -16.65151236452820
Br          7.66124899738901   -3.03331886653498  -18.99086461077116
H         -12.58957689733505    3.92121018465844    1.01519984868608
H         -12.69288021587513   -1.07697349900698    0.68976665253021
H         -15.29343528191491    3.67649652822281    1.71612648650963
H          -7.36813771563960    0.64174652612820   -0.30873414224444
H          -6.54526573368397    4.94616384932422    2.28845802661217
H          -5.55668924281117    6.10653855127373    0.29365732207410
H          -5.46799675062457    4.21702910338893   -3.03661242748670
H          -5.48963334912902    6.99459696360247   -1.73652882924773
H          -4.80003505449681    7.89035944306862   -3.79171119746767
H          -3.85574585806764    7.88451833293619   -6.08361063239920
H          -2.76329284649933    6.33223503942875   -7.81531178320142
H          -1.94842612693141    4.51544209518783   -9.04166020314385
H          -1.02607719484749    2.24642265718095   -9.82707800177873
H          -0.75418400497396   -0.21723646134092   -9.00153020198777
H          -2.06243311337675   -0.66301576249234   -6.39354759348327
H           1.05952859297396   -4.66791543006053   -8.12876971354791
H           1.17561536472946   -0.84561973478526   -8.39015350983961
H           1.77673673414894   -3.40848238993432   -9.94408586857275
H           2.71431572884160   -0.48351214380367  -10.16640261882111
H           5.49941860967201   -0.05528067078761  -14.61745884795349
H           5.20219692748347   -4.99054646548758  -13.80040960339094
H           6.69635402479280   -0.78513194028324  -17.04285958948243
