114
 SCF done       -208.671310993436          0.000711639225
C          -7.53392436828195   -3.63915609415092    0.97224380374676
C          -8.54824655825693   -4.55442812186799    0.87899730725108
C          -8.34706060041701   -5.94553870212868    0.75945385163301
N          -8.23950809055023   -7.08440130746980    0.66641470457270
C          -9.92227362995976   -4.23301779669464    0.84728441661645
N         -11.05429278562211   -4.04919262847724    0.79408498707679
C          -6.11010337274941   -3.93209328594930    0.89762711959069
C          -5.39816505260673   -2.70877206716168    0.85538348375481
C          -4.02743345235006   -2.65186942253213    0.78031078442028
C          -3.32530466158418   -3.86075704448317    0.74651256464791
C          -4.04508381125622   -5.07917156080409    0.79499023457036
C          -5.43084713195645   -5.13655270491269    0.86974504692568
S          -2.98099147425606   -6.45194032131584    0.75203703074766
C          -1.60328310868381   -5.38625179845392    0.66721767866859
C          -1.92113810666174   -4.06977557494522    0.67184411626141
Br          0.12398816770647   -6.11195128316177    0.58408703116519
C          -6.34464508621530   -1.57657720330349    0.91491459126378
O          -6.04843723188511   -0.40220582721217    0.90644937506962
C          -7.68868494225557   -2.19519817702061    1.07071277678955
C          -8.81416438549950   -1.55574805405941    1.48574828831909
C          -9.03625457801450   -0.13693657774711    1.55666501733473
C          -8.53232015534066    0.74605114288042    0.58898438905996
C          -8.76134729544119    2.09310439553185    0.72548001979713
C          -9.44615100656106    2.58745271821104    1.85207255005833
C          -9.99107867222791    1.71726736632997    2.78926132567664
C          -9.80959362736250    0.36296336109026    2.61707654395653
C          -9.41798070750769    4.03019818739080    1.81291193549373
C          -8.72940242966534    4.43208108089350    0.65408083388155
C          -8.33568178657141    3.22875354747725   -0.17564838351889
C          -6.83292564396333    3.20323038895566   -0.48819504256779
C          -5.97584121026405    3.18261876992004    0.77195709382653
C          -9.18626947763696    3.27618656984354   -1.46881202711643
C          -9.13137068494693    2.02952629359001   -2.34162577182758
C          -8.52961664677843    5.76391168256131    0.39241008861561
C          -8.98786860666729    6.73415336582883    1.30183470354821
C          -9.68122220509596    6.31297248068121    2.44849902581339
C          -9.90332152434001    4.97779623464933    2.70588637844899
C          -8.72679437428638    8.11789032718824    1.01547144640350
C          -8.86390909688384    9.15316468167984    1.88108246294123
C          -8.58851801044711   10.50305391011193    1.52832979398021
C          -8.61188762717462   11.56560807765321    2.42733355358162
O          -8.36171770759632   12.86361457618823    2.03170683225285
C          -8.06294157773919   13.04882015242462    0.71659360848435
C          -8.02134941602281   11.95703788976645   -0.19517731090418
C          -7.70397197545006   12.33939382566756   -1.45871646230408
S          -7.45249577285381   14.04068650179954   -1.54801838181311
C          -7.77750583926617   14.23848125725139    0.13284349943266
O          -8.28437230634787   10.68040833267808    0.20088647559759
C          -8.86172905011817   11.44676502653291    3.80380652904739
C          -8.84063984191064   12.50163503202343    4.69080500869903
C          -9.06104348734071   12.40987682751049    6.08432896706189
C          -8.96326788302870   13.60001889010705    6.74347930536273
C          -8.66562254546113   14.68933306510719    5.89846651584764
S          -8.51172039604502   14.16036358984522    4.24347253798105
C          -8.50377226096848   16.01912161584718    6.26257845753621
C          -8.56482687896736   16.57778694553721    7.55309224720048
C          -8.36007754036498   17.92888668985739    7.57747703283301
C          -8.13119771191843   18.49870995155858    6.30818149435111
S          -8.18374079741991   17.26271319346386    5.07561104158884
C          -7.92158674744744   19.83994662518578    6.03509507561157
C          -7.69697804500826   20.33720344724230    4.76004774219591
C          -7.53267026641692   21.65204152833199    4.36920532919517
C          -7.78553185004525   22.89495629361056    5.03939422162282
C          -8.68211107003521   23.12912999814613    6.05931486780595
C          -8.88239474233692   24.38743151576428    6.65699511282766
N          -9.06891903678390   25.38197817164195    7.20201386600360
C          -9.59247831443954   22.17833799455282    6.55824336837298
N         -10.39490650287578   21.46847034586388    6.97378111844354
C          -7.07819954912963   23.94283540775540    4.30007805620183
C          -6.56928366022546   23.38455656160724    3.10147154654500
C          -6.88004035298493   21.93850199026618    3.07533547468556
O          -6.62043313558969   21.14492119344053    2.19452055383133
C          -5.89094861024348   24.12890955796343    2.16926466131630
C          -5.69383314586397   25.48871939843788    2.43713063771125
C          -6.19227753513207   26.03265060460274    3.64255359990389
C          -6.88783072409471   25.28043221919881    4.58308345602746
S          -5.82834649721810   27.72716139897842    3.77804910221786
C          -5.02629287645616   27.68142115285973    2.23063833645778
C          -5.02745300356342   26.46240582100560    1.64258128311767
Br         -4.25984232405371   29.24840776778361    1.53863657156551
H          -3.51346377617225   -1.70391658430789    0.74874138019361
H          -5.93395241656536   -6.08813085718175    0.91134995466990
H          -1.19646198425937   -3.27751282692523    0.62594144517850
H          -9.62716623655925   -2.16432936350237    1.86575208662439
H          -7.98627691535967    0.35665393440581   -0.25335355855756
H         -10.54385671590692    2.09448706000843    3.63631409016509
H         -10.22181082418684   -0.33182542546528    3.33457048002198
H          -6.58745435755207    4.08287927156759   -1.08761572617546
H          -6.60288582747191    2.31705962131148   -1.07947178772672
H          -6.22588924068390    4.01578792262053    1.42601100411081
H          -4.92395976898701    3.25664230293283    0.50637389967763
H          -6.12411885666061    2.25266746255570    1.31451813811359
H          -8.85264315599003    4.13738144196515   -2.05206708946765
H         -10.22602958817075    3.45534450117634   -1.18179931834399
H          -8.11187246995706    1.79302025705889   -2.63392266306073
H          -9.71001378163919    2.19952985478763   -3.24711875326025
H          -9.55836115910725    1.17430778492265   -1.82467457133587
H          -8.00268244240960    6.08241865910208   -0.49541398290689
H         -10.06442473988628    7.05020571460142    3.13676483769518
H         -10.44289323155514    4.67355254803387    3.59027191618479
H          -8.35702484084715    8.33326294689740    0.02214392587971
H          -9.18346152006292    8.97236992916191    2.89273763604995
H          -7.60695892758648   11.72471620367540   -2.32885532532328
H          -7.74123545792388   15.20459163733873    0.59069177017257
H          -9.06809352835938   10.47153697814564    4.21065348310642
H          -9.28231407813766   11.46909737035415    6.55670716206308
H          -9.10058261534411   13.71601343708086    7.80321525559265
H          -8.75246241586414   15.98046697955528    8.42701184189036
H          -8.37758450940842   18.53240249013347    8.46719149054863
H          -7.91858873629393   20.50636835609511    6.88494198817378
H          -7.54636064108771   19.61218988408960    3.96486942399331
H          -5.52274555100709   23.67875602252446    1.26071239609918
H          -7.24630351249819   25.74114527643428    5.48852040207771
H          -4.57805014913192   26.25519782973034    0.68854024922157
