95
 SCF done       -206.864515940495          0.000815011109
C          -2.16917282906667    0.01995608135961    0.17350999717149
C          -2.58579818333952   -1.24697083616165   -0.15027196455596
C          -1.81912611613413   -2.40447716205342    0.09244211019221
N          -1.26069603982812   -3.38196760129317    0.32104279769576
C          -3.82369854472101   -1.59584270387522   -0.73290104353917
N          -4.77660313633651   -1.97965398899222   -1.24622326295263
C          -0.83756693563173    0.36200984894405    0.65789205667953
C          -0.80493189041869    1.74441356644521    0.95494133763184
C           0.30216978351366    2.35680788745055    1.48852588989021
C           1.42120708811015    1.56327210610370    1.76477026931767
C           1.39235205437770    0.19162644950232    1.42422743298645
C           0.28322693528170   -0.42259111406516    0.85782212583193
S           2.87168699313660   -0.60724019250391    1.86199345669158
C           3.48349791578501    0.88104015474828    2.53257807601940
C           2.63708900174282    1.93113486924399    2.40234767497358
Br          5.16496860191522    0.90212818432375    3.36043209479517
C          -2.13743088600858    2.33372657480251    0.69641943121802
O          -2.49049657081659    3.44722068462383    1.02381580266773
C          -2.95023277095023    1.23958334786670    0.11497143750659
C          -4.26689236177750    1.29338821640042   -0.25504224644179
C          -5.06937036488404    2.42915697809650   -0.50040375473794
C          -6.48319665717635    2.30000945029998   -0.44990394185456
C          -7.34244704431536    3.43940044393790   -0.60218774393967
N          -8.66023880025573    3.28449762556916   -0.55594211777288
C          -9.19079654384551    2.09398723115282   -0.35970319361225
C          -8.33019333342757    0.96739603727541   -0.19203398858912
N          -7.02585908933415    1.09659332589893   -0.23454086139824
C          -8.89016366597360   -0.31896475572061    0.02903725807190
N          -9.37302433625672   -1.33978407364927    0.21287902209076
C         -10.59715450550486    1.94826311766996   -0.31619159348476
N         -11.73113358299909    1.79441097473144   -0.27217940794550
C          -6.85504520237955    4.77219555157047   -0.75844900215202
C          -5.45360695748954    4.86426218843956   -0.98875549793620
C          -4.59500737648378    3.70336497719277   -0.89615453208537
N          -3.35244806945532    3.97598964353328   -1.27583032685242
S          -3.23970651508867    5.52658453427865   -1.65983348421609
N          -4.77641856700671    5.93316532381236   -1.39490831554137
C          -7.79103707264858    5.81551301300681   -0.69727040332121
S          -9.49867095333919    5.45770853435337   -0.72255846984061
C          -9.94352605812538    7.21331296402358   -0.60344067408729
S         -11.51907263572912    7.71416413411259   -0.64909709603690
C          -8.78685004832751    7.93988670449697   -0.46681721110428
C          -7.59438914178056    7.20996149472698   -0.51346761844477
C          -6.42254493851141    7.94724504950284   -0.23663983292502
C          -6.61299804749352    9.26820969020144    0.05919494088327
S          -8.38217810373515    9.66419826068607   -0.16932642872721
O          -8.57319727818216   10.46564013193686   -1.34121018367706
O          -8.93458544946209   10.13040504904196    1.06793705048758
C          -5.71779612896225   10.20895355695182    0.55534275124092
C          -4.52053543666911    9.90242193485728    1.17809918914472
C          -3.58366516698716   10.80901031828266    1.72433597589153
C          -2.52988540456515   10.21374700959789    2.35959720218616
C          -2.59492862117744    8.80546500996858    2.36000702309910
S          -4.00729628259749    8.26039403761165    1.49642367828500
C          -1.73285575506094    7.88507859965712    2.94432020405370
C          -0.50234038700382    8.13020337619870    3.58994573742512
C           0.09503150712939    6.99907322021099    4.06306284460434
C          -0.64964282415460    5.81718544245968    3.83244240491572
S          -2.11741367305938    6.18263701629638    2.96064738061626
C          -0.30044632622322    4.54780848664445    4.24824198137551
C          -1.10181848579877    3.41967081167536    4.07011377970371
C          -0.80492016818374    2.12594015324392    4.42805160937545
C           0.28922064167487    1.56992057376446    5.18762432990745
C           0.95798475444209    2.15207542470992    6.23582076677978
C           2.00570541296152    1.52308150869823    6.93995458105907
N           2.87973393216439    1.06964364185294    7.52951809618141
C           0.61631582732134    3.39474616634058    6.80792791974653
N           0.36104289426431    4.38255415491733    7.33446453419832
C           0.43258967597925    0.17658235595577    4.77504104911242
C          -0.69789050101542   -0.18275713197212    3.99753740397941
C          -1.55071494358639    1.00366308558436    3.80721128050545
O          -2.60145471901863    1.06959016435636    3.20301925701789
C          -0.86021023061727   -1.44327071342612    3.47583154030192
C           0.15673907990803   -2.37859458553617    3.69386990955446
C           1.28385988375922   -2.00687472625959    4.46788388984041
C           1.43298410750316   -0.74168987420345    5.02496961839290
S           2.43066801948729   -3.30232299719408    4.58692485072536
C           1.40477433577739   -4.30736790545559    3.59473601483147
C           0.25410030131243   -3.70855148430860    3.20432986301718
Br          1.95778102882664   -6.04372105783029    3.16827488901443
H           0.30491333847785    3.41463387595901    1.70001258326155
H           0.31384505289875   -1.47098800197625    0.61416970906039
H           2.85827052623055    2.92347131727924    2.75108700046113
H          -4.80621456159636    0.35882959618634   -0.35138681716590
H          -5.45682837793018    7.47947469670111   -0.32388188861562
H          -6.02241606658792   11.24606023157744    0.52410000292311
H          -3.71759238792851   11.87240271616831    1.63746611030458
H          -1.73514649421478   10.75145721909287    2.84399771691616
H          -0.09056638392617    9.11873673939824    3.68219265322298
H           1.03116920825669    6.97760230789312    4.59176915651905
H           0.66503574609209    4.45114579467671    4.72302067488243
H          -2.01950122044065    3.54335682410240    3.50305199088826
H          -1.73853763221895   -1.70412746636982    2.90712582023231
H           2.31122761778888   -0.50226076625949    5.60184163020770
H          -0.48341648253751   -4.16996863160766    2.57259603594921
