115
 SCF done       -216.531932247236          0.000516538534
C         -11.00800695074059    7.23370437941282   -3.13808573702667
C          -9.85494526566206    7.86949382145636   -3.52267871183726
C          -9.81907290520653    9.10408695022218   -4.20297544131156
N          -9.72496240611039   10.10010033378994   -4.76575280972554
C          -8.55283403846190    7.38183781287737   -3.29282761393962
N          -7.46868241372758    7.04071725857024   -3.12613518417099
C         -12.36834663302050    7.72601221269420   -3.33991381144938
C         -13.28769624150957    6.77496192131349   -2.82374682293725
C         -14.64810214894245    6.96006997551057   -2.86803182055721
C         -15.12786529382490    8.13761000892399   -3.45158758123956
C         -14.20452583269719    9.08028903148099   -3.96404257444393
C         -12.82780356910224    8.89430713077118   -3.91683159606190
S         -15.01099523212526   10.46039235389856   -4.64268054195646
C         -16.55644837361467    9.76333037167317   -4.23571131721569
C         -16.47459015568007    8.55821790029596   -3.62204690018581
Br        -18.13028316728039   10.68978378886749   -4.66010753766844
C         -12.53671487212537    5.63441249378230   -2.28108413059860
O         -12.98016990142119    4.62152141223453   -1.75569886936584
C         -11.11943997966981    5.94833548194559   -2.48950740193741
C         -10.12346836486825    5.08220065971085   -2.12046096084744
N         -10.40366799909734    3.89208917540490   -1.57167405004179
C          -9.49210724534548    2.90988346633918   -1.29654059164376
S          -9.79567900829847    1.79940344263429    0.00029069966475
C          -8.25011424347945    1.07225258401855   -0.29036229136595
N          -7.87495176642705   -0.01536412397007    0.51331605439474
O          -6.78568117729336   -0.51524038799888    0.31207020462752
O          -8.67666751037425   -0.37411439176998    1.35672513892729
C          -7.55559983973617    1.64933025117253   -1.32065354069549
C          -8.26366465324202    2.70357705915671   -1.92685093956337
C          -7.83942042247192    3.44168104391564   -3.09692256447536
C          -6.56955861702207    3.75459011374311   -3.38958475480145
C          -6.14943517317613    4.58691129451241   -4.49636940256091
C          -4.85404323179296    5.12096676066174   -4.46718018525867
C          -4.46020313912518    6.00485696827435   -5.44111728899158
C          -5.34052039817141    6.36750299219563   -6.47387983866626
C          -6.61198187789233    5.81592804053300   -6.53529958694623
C          -7.00374775334645    4.93316299684539   -5.55042515152605
C          -4.67385172732381    7.32158609297956   -7.33350968662981
C          -3.37578528618403    7.53605053466582   -6.83874935899716
C          -3.14465634779100    6.73191060966534   -5.58159342672085
C          -2.89736890069345    7.65624933568633   -4.37292336982109
C          -4.05057050583409    8.61920509113881   -4.11507216921030
C          -1.96483528517643    5.75622036838787   -5.73854339238148
C          -2.13429161329138    4.81285321473677   -6.92329571434196
C          -2.51368169022892    8.38255028921377   -7.48995811446203
C          -2.94095654747268    9.05850508014784   -8.64379915714421
C          -4.24432250477783    8.84951828490303   -9.11383132328079
C          -5.10766625627792    7.98444748053519   -8.47312063800297
C          -2.00021197941186    9.92877341240472   -9.30754885049655
C          -2.26741177691831   10.79777208453139  -10.29553379052582
N          -1.27409470060060   11.55737554662783  -10.86839918454476
C          -1.40106134308872   12.42138792838324  -11.88675441380099
S          -2.93716617728410   12.75252219991100  -12.61236717833844
C          -2.14909208304116   13.77857627272322  -13.78065736524398
N          -2.96195998562124   14.41817468511908  -14.71733831987636
O          -2.42688226190195   15.14304531873601  -15.53659308475576
O          -4.16066920419040   14.19994309549181  -14.63763653619499
C          -0.79284638392485   13.84321680471276  -13.62478935763297
C          -0.33262077673738   13.08640358109412  -12.53076827286634
C           1.02248865753004   12.94937524362181  -12.10735773153359
C           2.11780600325504   13.20405316429972  -12.86835246102252
C           3.46208449731789   13.05996808040875  -12.45257383605654
C           4.03351552950047   12.41175608559006  -11.39011406063215
C           3.56874762650695   11.46514313290606  -10.40659965150772
C           2.55249845601705   10.54638984787691  -10.54063491572554
C           2.07265856042061    9.72506122064916   -9.50458260263991
N           1.55065164264775    9.10025197873119   -8.69280885139666
C           1.84362403445349   10.32115712199582  -11.73495744213015
N           1.22308075679006   10.08829862225903  -12.67313251620392
C           4.51451612595804   11.48075201389996   -9.29423790201180
C           5.64763904834708   12.24277250291167   -9.67193655171651
C           5.42618879792256   12.79575374422101  -11.02350829754147
O           6.19200156761037   13.45684296907892  -11.68573686010710
C           6.73992728697024   12.39605413305723   -8.85446521053354
C           6.70872949514393   11.77529932395291   -7.60033842891296
C           5.56764234842340   11.02552923186918   -7.22787786148695
C           4.46594484229164   10.86343163422699   -8.05896955824341
S           5.73893349427132   10.34810894143892   -5.63710566847456
C           7.32175009918012   11.06571826788038   -5.49723169672586
C           7.70259262917141   11.77882456688858   -6.58409949511005
Br          8.31929594149498   10.80530493412531   -3.93052899611906
H         -15.32234489493193    6.21981853766388   -2.46682068710631
H         -12.16539883354216    9.64216970746684   -4.31966487844195
H         -17.32821419007311    7.98862093373255   -3.30311489274083
H          -9.07943369838314    5.33229445949894   -2.24773008662787
H         -11.40133796297452    3.74276629398161   -1.36069696015311
H          -6.59191156768285    1.29770910999181   -1.64082663407668
H          -8.64142205975399    3.77323017960885   -3.74272733505007
H          -5.78651093846304    3.45427065649853   -2.70556600989612
H          -4.18669719029277    4.85257173195870   -3.66101151150456
H          -7.28827274066683    6.07805135331004   -7.33545622554087
H          -7.99206677132371    4.50120498986101   -5.60079983141519
H          -1.98141008458570    8.22348561459737   -4.55192842665404
H          -2.74008642272499    7.03729146696327   -3.48733713899646
H          -4.22745255417243    9.25018297749932   -4.98355414298697
H          -3.81734362654758    9.25971809099432   -3.26754489724888
H          -4.96689742961729    8.07716870167064   -3.89254757129762
H          -1.86928978967466    5.17245170450992   -4.82064460357180
H          -1.04706205296220    6.33384475864144   -5.86424705623683
H          -3.03939627264367    4.21887070867803   -6.81569546824254
H          -1.28439260433513    4.13753956773314   -6.98818135485061
H          -2.20006594422726    5.37275131141249   -7.85350039251297
H          -1.50823681328098    8.53927248053859   -7.12727723510114
H          -4.57592140014706    9.35745854386922  -10.00585769137829
H          -6.10448453830847    7.82600855930890   -8.85622002158227
H          -0.97804470993812    9.85500813794029   -8.95341698717910
H          -3.25436283780159   10.96223832533523  -10.69819876159779
H          -0.33695569607328   11.37603441510494  -10.53052462492041
H          -0.17077357158369   14.44313580730128  -14.26315216243378
H           1.17097096474248   12.64712242047516  -11.07847834287702
H           1.97564959194604   13.58203784475625  -13.87068258329724
H           4.18873560872711   13.60632208552279  -13.04847637742401
H           7.59449574403735   12.97203220731858   -9.17258104406096
H           3.61944529262835   10.28353689558305   -7.72997757286643
H           8.64589369341713   12.28677276196755   -6.66741173544788
