113
 SCF done       -194.158539604667          0.000936983464
C          -4.53358835240544   -2.33708356384590   -1.22773176654771
C          -3.16192744997054   -2.33131513741480   -1.24248299337770
C          -2.37214677279433   -3.43794206471973   -1.61655401152935
N          -1.67731515505122   -4.30102248889125   -1.91752970991274
C          -2.34581827274887   -1.24542088550509   -0.86189997302787
N          -1.60952775255421   -0.41889261183753   -0.55510601841626
C          -5.37769304685368   -3.48468161478099   -1.52788411830697
C          -6.72503097839781   -3.13423094165835   -1.27168302250803
C          -7.76783617809198   -4.00762379051221   -1.46258959090059
C          -7.46649942670745   -5.29211512503954   -1.92688890438750
C          -6.11654582609396   -5.63442411099617   -2.17983169617367
C          -5.06244277580373   -4.75053755342553   -1.98812629162703
S          -5.96862625847507   -7.26820087546254   -2.75394707345447
C          -7.69748499605215   -7.46656332881911   -2.64510520945605
C          -8.35417847807536   -6.36777125521080   -2.20350130019567
Br         -8.47344109392635   -9.10347377644117   -3.13247557401167
C          -6.79574128898746   -1.73682687887705   -0.79599942151448
O          -7.80934140581124   -1.13672657598947   -0.51322554928437
C          -5.39697555103073   -1.23562735868501   -0.83145005101146
C          -4.99711035022182    0.06278285303541   -0.73441395515174
C          -5.72268443879866    1.20545730155953   -0.25967865981540
C          -5.36676255303688    2.46743993783512   -0.77491272842185
C          -6.02275953734109    3.58735439861429   -0.33799863352006
C          -7.02188727846869    3.48991276977673    0.65092530614109
C          -7.34902169234405    2.25618100023331    1.19791363052764
C          -6.70460566767909    1.12635241363603    0.73937410955982
C          -7.52581162515988    4.81607055617244    0.92605698668983
C          -6.83699255295128    5.73232637949564    0.11118850243943
C          -5.82422475589400    5.02511797455560   -0.75626464479231
C          -4.39232728483253    5.50562023731947   -0.45303343669336
C          -4.00771228684767    5.33542803671395    1.01170744134777
C          -6.13181002370957    5.23050847262394   -2.25166348381656
C          -7.54466144886049    4.80187087892783   -2.62944004647944
C          -7.13126674665359    7.07015962370705    0.16479896259410
C          -8.13650087326209    7.53157041840467    1.03116410091537
C          -8.80815576726099    6.60785036643407    1.84398827794264
C          -8.50983485061871    5.26142942262611    1.80002034873617
C          -8.44341468235650    8.93857184600256    0.99413825885260
C          -9.44941905841661    9.58587953957225    1.61576874112576
C          -9.71567039831314   10.98022056449735    1.42175256629928
O         -10.31669408081794   11.66638341573222    2.43636004753835
C         -10.37100447387744   12.94886487262054    2.12465276497218
C          -9.82079915559711   13.15981250752441    0.87896191252149
N          -9.69111124933050   14.38422639304627    0.21086535128132
O         -10.20762177687390   15.36736865976682    0.70871555654531
O          -9.06126432719181   14.38352461014697   -0.84266130796664
C          -9.40879796231755   11.87239900433419    0.39042760829412
N          -8.91230284124854   11.65602970507773   -0.85864897742551
C          -8.99787310727684   10.48860013065783   -1.54965327663138
C          -8.36251375367290   10.24244481077305   -2.72911626142860
C          -8.43958694245194    9.04215838437861   -3.48471686078537
C          -7.71292776463572    9.06359010596100   -4.63333734646339
C          -7.01320173579630   10.27166515053169   -4.85649330767007
S          -7.30564367293152   11.39670734514642   -3.54181972514407
C          -6.19646262943867   10.59003615575991   -5.92221249065219
C          -5.91100704975718    9.80089248479169   -7.05986641999809
C          -5.06593136055350   10.39567529252245   -7.94398480811125
C          -4.61588050691713   11.68642667891408   -7.56156921522383
S          -5.34451465547040   12.11503676296202   -6.01819260038083
C          -3.74420172826606   12.45766342317791   -8.28355161532141
C          -3.20112731409278   13.72426390448968   -7.97696306938278
C          -2.29246859971846   14.40599260948272   -8.79503863934361
C          -1.93700723563104   15.62520298688038   -8.17049735834864
C          -1.08129224586621   16.63892613363432   -8.54619801457988
C          -0.94032594853111   17.72911775709933   -7.67531200804376
C          -0.17263756360519   18.88498932947041   -7.75573726907505
C          -0.39451847013423   19.67915773938423   -6.59084878161973
C          -1.30328708996947   19.01251016395206   -5.78495545320803
C          -1.67145966305739   17.78913741569026   -6.42315789396595
C          -2.52575016669337   16.78538316216200   -6.04642826471635
C          -2.66747779184559   15.68641995899076   -6.91798103951676
C          -3.42766713447693   14.53492496777740   -6.81478700079858
C           0.25136408606644   20.94950612374468   -6.35808832445860
C           0.06176172355840   21.73091536971323   -5.29847922471462
H          -8.78425046435043   -3.70943876969477   -1.25816257998012
H          -4.05211197064656   -5.05685422800326   -2.20144822344136
H          -9.42040824669694   -6.31555287188954   -2.07931618406454
H          -4.00001377081747    0.29330956460160   -1.09301782078660
H          -4.59311011764318    2.53299599072676   -1.52675081956597
H          -8.09411396000287    2.17912349948376    1.97497628301582
H          -6.93507175204815    0.17051098673045    1.17831081784447
H          -4.31372276975180    6.55943910720453   -0.72827517663429
H          -3.69480145211144    4.94432358228435   -1.07794570662312
H          -4.68440262462258    5.89407577973821    1.65484171540504
H          -2.99675980880795    5.70043799580026    1.17620727258972
H          -4.04520264491610    4.28766380100620    1.30101927393654
H          -5.40993540082311    4.65919776203043   -2.83888542785214
H          -5.99785001931186    6.28726936475248   -2.49377708175926
H          -7.69782821219083    3.74641369392056   -2.41557193292450
H          -7.71393453600807    4.96593033343013   -3.69127095125470
H          -8.28187341761234    5.37424101763934   -2.07035143717297
H          -6.61057762210333    7.77743125391970   -0.46526840843062
H          -9.57444862341941    6.95618602689915    2.51903271290659
H          -9.03909454644541    4.56402797783393    2.43188198508380
H          -7.79177977541960    9.51542206039452    0.35138955406768
H         -10.08463731688406    9.09414876102980    2.33762155238507
H         -10.79418969052396   13.64066598034242    2.82550586808720
H          -8.58616831044682   12.49341686208010   -1.34223469045698
H          -9.61772087760557    9.71822046718262   -1.11666723468098
H          -9.02718748964826    8.20747559711233   -3.14607498983665
H          -7.65390040834475    8.24270045129862   -5.32509600435706
H          -6.34073524252562    8.82476198741136   -7.19618526519076
H          -4.74063626665420    9.94707211177650   -8.86646572008452
H          -3.41085075815258   12.02578836101805   -9.22041149656681
H          -1.92132792886075   14.05897754197254   -9.74219045844685
H          -0.53232404608382   16.60099872191348   -9.47678802106375
H           0.48803798225184   19.15161960397132   -8.56197890107624
H          -1.67984781519378   19.34107707251128   -4.83444184946375
H          -3.07570954320140   16.82022763067754   -5.11649362396384
H          -4.07867108486443   14.28763985509842   -5.99728218336244
H           0.93985817843563   21.26118953030362   -7.13409918950002
H          -0.61384190866781   21.46364532571084   -4.50472085433529
H           0.57810338396556   22.66871164187997   -5.19020085764779
