102
 SCF done       -202.000015073830          0.000699852676
C          -9.86943587082918   -1.72406275448650   -2.38433569917836
C         -10.80845916930455   -2.56050994502281   -1.81366213689653
C         -11.08898800756572   -3.85340943346474   -2.28516571044662
N         -11.38560739851490   -4.90002782031474   -2.65610209874631
C         -11.58305641098858   -2.23202406986929   -0.69182980408584
N         -12.18665749642417   -2.05461759813209    0.27258472482204
C          -8.85630013983367   -2.12025870032328   -3.34964015247099
C          -8.05530024092291   -0.99114447612376   -3.65608835290465
C          -6.97835479033886   -1.06276569572923   -4.50269966277332
C          -6.66668091376847   -2.30913265486284   -5.06119866039347
C          -7.47311645662853   -3.43013759705159   -4.74937090053698
C          -8.57111614250842   -3.35476638578951   -3.90210807530354
S          -6.91135347301329   -4.86833027605151   -5.54438893765585
C          -5.61959678414353   -3.95844329496358   -6.27796297486397
C          -5.60588330575117   -2.64503421005329   -5.94445763605212
Br         -4.40876533575809   -4.82614508842050   -7.41541112190982
C          -8.58336954821477    0.19127553606059   -2.93967212063185
O          -8.29493888730489    1.34851224075136   -3.13637829877835
C          -9.67470960727025   -0.33336107628739   -2.07776458470355
C         -10.50553332399821    0.42824266296572   -1.29442776185261
C         -10.23110641716874    1.69736647569149   -0.76725424057052
N         -11.23714683085100    2.51380551658340   -0.28520382339554
C         -12.64912814258878    2.29119234519366   -0.44016725010692
C         -10.73588210345325    3.68919813766363    0.27460683898144
O         -11.43921722206631    4.59724087846426    0.68247822963167
C          -9.30023171801950    3.52820700434865    0.21715797426398
C          -9.01916642114630    2.33085511941297   -0.46478191134003
C          -7.57232113754764    2.18249603818980   -0.54027276554719
O          -6.86109116306511    1.27230553619736   -0.89955060462986
N          -7.08180647135587    3.38512276782127   -0.00762131596631
C          -5.67114030596094    3.62796777246586    0.12076239484150
C          -8.08372074691525    4.17026928251048    0.52438949132455
C          -7.82628804667223    5.32827851886630    1.26169527698443
C          -8.64307479535256    5.83961598669606    2.25767216932682
C          -8.32260758850452    6.94461239572477    3.09374462592040
C          -9.12614096779599    7.06152506495033    4.18858930581617
C         -10.11280733229890    6.05154625868503    4.25500557494088
S         -10.05573164158548    5.02861451054336    2.84827976271580
C         -10.95895068771484    5.69010816170320    5.29419321674649
C         -10.95608623441055    6.10194228246968    6.64855010540602
C         -11.68168037586184    5.27944715653364    7.45772215090053
C         -12.26773903078391    4.17874832058124    6.77518267383088
S         -12.02189028580462    4.33408699577875    5.06797874703292
C         -12.90855797944510    3.09690953933028    7.35016542618764
C         -13.17964710054202    1.87482915845292    6.72457525397067
N         -14.07225573995803    0.97240881560239    7.26814153245998
C         -14.86799874462069    1.17987355314601    8.44651025801928
C         -14.18203955137675   -0.20506657561210    6.51378340491033
O         -14.92956159389151   -1.11566257872690    6.78800505598186
C         -13.25435523215231    0.00202338471866    5.41836834883272
C         -12.64492803046335    1.26792485928230    5.56657186899636
C         -11.62730233567928    1.36603087487211    4.54270083269675
O         -10.78376152541811    2.20360283941389    4.27581427152970
N         -11.74574964550903    0.18063808932520    3.79740157695035
C         -11.07398428510292    0.08010744429793    2.52914263577856
C         -12.66960456318018   -0.67461542245129    4.34820569476486
C         -12.94711495544410   -2.00863031878304    3.95443527784420
C         -12.11208809676880   -2.91176971936010    3.37566548829960
C         -10.67989928444391   -2.88979562400338    3.17852891198375
C          -9.75824939652574   -2.32265408095524    4.01967702651219
C          -8.36595419784957   -2.42468830064017    3.82253167245333
N          -7.22740172099029   -2.46856777612103    3.68472133936220
C         -10.10216371517252   -1.66741146691102    5.22062499986017
N         -10.32961403544384   -1.17278400879818    6.23102954674806
C         -10.38412334814413   -3.80167764718151    2.08278456788879
C         -11.52758711404911   -4.60695587843077    1.84648771843024
C         -12.63854900377848   -4.13972328321498    2.70463483431293
O         -13.74426724756073   -4.60697129458590    2.81395261242622
C         -11.53110017310467   -5.61074766541320    0.90808858417034
C         -10.37536768475345   -5.79160775721758    0.13988334020549
C          -9.27167354495703   -4.92622677898544    0.33334806601337
C          -9.24664566991262   -3.94189479027356    1.31325791376217
S          -7.99492106806306   -5.25347325578555   -0.79889389178336
C          -8.93735122818626   -6.55151930995795   -1.48870657519103
C         -10.14623455923709   -6.72726840903193   -0.90729206751872
Br         -8.23878861468460   -7.51414289508196   -2.93351948819013
H          -6.38435757639764   -0.18882877795815   -4.71794451275626
H          -9.16526192740993   -4.23148052724115   -3.70459472773489
H          -4.87786350928461   -1.94201439470514   -6.30583116266784
H         -11.47295208306893    0.01675311043877   -1.03409301262526
H         -12.97266962454135    1.40494604573011    0.11053408250746
H         -12.91429127516190    2.17880112146605   -1.49320194494837
H         -13.15226342895836    3.16844104938676   -0.03303970110161
H          -5.16199795437161    2.76861637390411   -0.31544350264201
H          -5.38151473469650    3.72372830711188    1.16944614580414
H          -5.38141416120040    4.52953383122319   -0.42246296108992
H          -6.86196996866557    5.80177268380964    1.13460122384223
H          -7.49168323292332    7.59272110479853    2.87667422929716
H          -9.02687669497773    7.82269623533696    4.94146013075725
H         -10.38485614022560    6.94640523472674    6.98943779849166
H         -11.76157579659496    5.38913266086619    8.52475914981771
H         -13.19543469253930    3.19367398013772    8.38880185859430
H         -15.47510321764613    2.08262514045984    8.35613818379642
H         -14.24152542556644    1.24758126159583    9.33861984767408
H         -15.52144301298221    0.31207149800293    8.53941198454754
H         -11.11156923165509    1.06388615868553    2.05656376532203
H         -11.56373213118973   -0.65907895254790    1.89625485187813
H         -10.01931125575308   -0.18060445338242    2.64970989779581
H         -13.96152374334499   -2.34377975507045    4.14464096016769
H         -12.40302922266645   -6.22612505063247    0.75340045247389
H          -8.38179123182301   -3.30995761920720    1.43646766612244
H         -10.85966877195635   -7.46798187930809   -1.21729340268821
