96
 SCF done       -162.020068248734          0.000806504529
C         -12.79011853874909   -0.89469944257515    7.22782127605258
C         -13.25189572922133   -1.03414580401090    8.51437599355640
C         -13.61842674534627   -2.26528628370237    9.09131284427819
N         -13.92216553082344   -3.24355412298416    9.61182976181248
C         -13.45960931435968    0.03829371989054    9.40425071448575
N         -13.67624636236909    0.86731369345381   10.16979279757354
C         -12.66897552437047   -1.95581695891580    6.24196183409516
C         -12.31109467587503   -1.37960708996779    4.99725693907819
C         -12.11732271575380   -2.13022449373781    3.86349557029136
C         -12.27912679978149   -3.51651128188029    3.96169924437216
C         -12.63251021284429   -4.08298819373640    5.20954484605067
C         -12.83361049350163   -3.32477007930519    6.35559852154725
S         -12.76729394845051   -5.81311742576515    5.11003061842916
C         -12.35395500460853   -5.75142949372623    3.41660650937223
C         -12.12731230434379   -4.50155288716928    2.94786268465650
Br        -12.25669900375784   -7.34366319577681    2.42872928938943
C         -12.17463072525734    0.08107028041901    5.15168578629841
O         -11.84643699770473    0.86342046175910    4.27929800753691
C         -12.41943788217739    0.35328557048072    6.58647360218213
C         -12.08228702434537    1.51478876149552    7.21844941783916
C         -11.76412488595480    2.74413999838863    6.56604840623081
C         -12.44834039758143    3.32918608321312    5.56401911972758
C         -13.77001981340096    2.85920790705238    5.05893625644002
C         -11.84389674578160    4.48137651667233    4.81221975919482
N         -11.41080353718085    3.94983483896947    3.52773190666827
C         -12.18147118357092    4.06119606235485    2.38944774611531
C         -12.96844105997859    5.09457669557453    2.06271125786389
N         -13.65304536874998    5.17909225848840    0.84309561602872
C         -14.39941260437705    4.15135260882982    0.29168286812898
C         -14.73658303361134    2.96294461853767    0.86790704093205
S         -15.72392359263828    1.99415388096191   -0.15678680522847
C         -15.69334399801542    3.18723413861592   -1.39073606918112
C         -14.94520589823255    4.27215480825366   -1.03537628324176
N         -14.68189301879656    5.38140436103569   -1.81706657378700
C         -15.32494623046718    5.71123330029699   -2.96453255245806
C         -14.89175833933087    6.68855837408405   -3.80466488132127
C         -15.52225515817843    7.11978858755936   -4.98975871729693
C         -16.74197108287783    6.76908662296514   -5.51432659787894
C         -17.27608083606095    7.26339706217428   -6.73063959106126
C         -18.52487831267583    6.81075845044513   -7.03471092289444
C         -19.06429930046594    5.92975798276596   -6.07498316996408
S         -17.91326597893447    5.68089024872953   -4.77852628283889
C         -20.30396899661125    5.31929913843612   -6.06340125043842
C         -21.33019266253485    5.40436313824502   -7.02812192910927
C         -22.44697430144905    4.69339159127206   -6.70779230896302
C         -22.37722480439377    4.00532342198687   -5.47026540302500
S         -20.80778152132487    4.29596772329000   -4.73508202806568
C         -23.37765077113869    3.24522010101943   -4.92160567591857
C         -23.38288770568083    2.55861274041837   -3.68873818089575
C         -22.38900708786350    2.44757018275336   -2.71532930517392
C         -22.88781418600191    1.66074003187872   -1.64543561333717
C         -22.31588123224016    1.26442639683353   -0.45882535575757
C         -23.09206790191453    0.47986686879302    0.41255320019170
C         -22.81945967935101   -0.06356564177420    1.65645236132391
C         -23.96953787875896   -0.78141549755625    2.12094314249791
C         -24.95405338769784   -0.68174483200040    1.15765561923368
C         -24.45171213440214    0.09922029006302    0.06806845958216
C         -25.02312779793308    0.48680764952047   -1.11217104071396
C         -24.24666141284804    1.27742279097441   -1.98912445440323
C         -24.53005698282419    1.82292726654013   -3.22306487013163
C         -24.01693565423008   -1.46546973355551    3.39153399062030
C         -25.06548116042131   -2.12500999241222    3.87691950324625
H         -11.84676862872207   -1.66518780309018    2.92832140197798
H         -13.09581043348185   -3.80155512174616    7.28529179005210
H         -11.86165503589298   -4.28176753976371    1.92993586495705
H         -11.95556258931340    1.49940448592714    8.29459147469076
H         -10.90708505935495    3.27062338528639    6.97265844807993
H         -14.22291069251175    2.14113786666321    5.73723222010715
H         -13.64719656284694    2.37684662956171    4.08797527386406
H         -14.44266174547550    3.70620556109193    4.92908584047695
H         -10.97001936525255    4.87949851596280    5.33769603095314
H         -12.55838684242121    5.28803321256072    4.65431338031190
H         -11.01223997112143    3.02510789628742    3.63830820879549
H         -12.06028106877686    3.25361020196124    1.68146205967918
H         -13.07546996267504    5.96178998284210    2.69846273984711
H         -13.99071985610534    6.10363890704684    0.61803986236655
H         -14.48078513860511    2.60449770548997    1.84256806413800
H         -16.20845207311461    3.00465965548757   -2.31093054861804
H         -13.85119923034838    5.90730049369973   -1.57755877941223
H         -16.21893525960799    5.14523437834627   -3.16219721506477
H         -13.96020459126242    7.18526317536228   -3.56010224088455
H         -14.97138205346293    7.84630643372429   -5.57426695238092
H         -16.71544714842505    7.94651987716373   -7.34490774507437
H         -19.07316362811078    7.09426515475065   -7.91525088515395
H         -21.21834635635485    5.98451714387312   -7.92672633025785
H         -23.32945672433198    4.64268719570217   -7.32173626111423
H         -24.28619274329827    3.17354149867988   -5.50803052353931
H         -21.40619033252546    2.87603151674501   -2.74776760772905
H         -21.30545478964690    1.54412587243412   -0.19606350515731
H         -21.89673897874312    0.02960009648898    2.20182106972357
H         -25.93813221042373   -1.10971271220308    1.19655386614703
H         -26.03374973905404    0.20805314579038   -1.37741303399908
H         -25.45379455688422    1.72934925291904   -3.76686753706133
H         -23.10417077338975   -1.41455349600651    3.97294027577678
H         -25.99304553162237   -2.20063701082550    3.33591747833316
H         -25.03093715646649   -2.61308033170973    4.83554716933821
