115
 SCF done       -198.223499083099          0.000599902183
C          -3.51480384388260   -2.22840800085016    0.20817409883934
C          -4.20054290699942   -3.06735111668436   -0.62969026137464
C          -4.01157945219378   -4.46482549351132   -0.67650178975080
N          -3.90619069528321   -5.60511432363501   -0.75527153184738
C          -5.16517364001782   -2.66287490061933   -1.57728370922794
N          -5.94772552609485   -2.41612596478894   -2.38077456318028
C          -2.45889096343585   -2.62591465150322    1.12858032444566
C          -1.90477898984742   -1.46170321099179    1.71311127128658
C          -0.88091107413684   -1.50612885431831    2.62817066352008
C          -0.37685535548356   -2.76137193158162    2.98227941091686
C          -0.93889026172186   -3.92102742379838    2.39557538190844
C          -1.97516938453399   -3.87567955146297    1.47207797363905
S          -0.17157323978077   -5.36721224657725    2.97799317708975
C           0.88037398048878   -4.40811344843664    3.98518350345975
C           0.66943401993143   -3.07357584599480    3.89261359939655
Br          2.15607776592361   -5.25920537414951    5.06439592705476
C          -2.59353935363620   -0.26363575030453    1.19238627763042
O          -2.36821738161803    0.88085414278925    1.51597570878722
C          -3.64998493949519   -0.78031677002290    0.27954475618818
C          -4.69334876226434   -0.06655507004920   -0.22014599454194
C          -4.85576600198779    1.36146602875619   -0.25445663445262
C          -6.15856195567197    1.88134449517633   -0.14241185514357
C          -6.34549607402193    3.23929511363744   -0.14508171695553
C          -5.24940708748407    4.10882143375311   -0.30562706094823
C          -3.96781112657748    3.60334812771366   -0.47909901110422
C          -3.77818938473474    2.23774599210202   -0.44694698313347
C          -5.73387441500676    5.46904720663348   -0.26439982226345
C          -7.12799457910140    5.44447206777740   -0.07450759618443
C          -7.62932542692374    4.02139207764460    0.00407563666253
C          -8.61195315521130    3.71070541313518   -1.14121689873825
C          -8.01470775484775    3.96350175853106   -2.52022900865972
C          -8.30559558619395    3.73510357792538    1.35777705675382
C          -7.39540311951747    4.02113410863243    2.54623272687960
C          -7.83711657640537    6.61513556164082    0.01888108238651
C          -7.16921114997592    7.84936561747379   -0.08159089749636
C          -5.77810003686690    7.85287949365272   -0.27810153820131
C          -5.06044175465754    6.67986259564887   -0.36793464156162
C          -7.94517487783467    9.05496476313399    0.03925665428750
C          -7.47942945415852   10.31554619368498   -0.11568896318871
C          -8.24687194785157   11.50792507661934    0.03571822285537
C          -7.61939727194353   12.76228773507212   -0.17748470216915
C          -8.31807872711405   14.01675504819048   -0.02655888033170
N          -7.65598261448376   15.17377929208175   -0.23326006685252
C          -6.39886094928709   15.14341685901497   -0.58179757987167
C          -5.70617561709439   13.89565225889280   -0.73510524354751
N          -6.32323543921362   12.75968308088178   -0.52695119633380
C          -4.33990472637882   13.88272821896400   -1.10783741506268
N          -3.23534530136916   13.90557125707346   -1.41213148956313
C          -5.72638754480032   16.37025150944091   -0.81394493329607
N          -5.17035281322888   17.34967385981014   -1.02230451965522
C          -9.66920927439446   14.06690252093235    0.34165523253697
C         -10.29451861425402   12.83262146813192    0.55839990525430
C          -9.60754829612366   11.56785279569124    0.40409195931801
N         -10.42151695620275   10.53958355418730    0.66082020364180
S         -11.87315973704019   11.09756831188399    1.05017623818900
N         -11.57318509163986   12.66293981828555    0.91850321358991
C         -10.41434368636861   15.31810241557093    0.56692813186460
S          -9.66934643953855   16.48867557638477    1.84790952473854
C         -10.47467328447897   17.57473474604358    0.60605272560278
C         -10.30794024130429   16.47696367067293   -0.42739422908040
N         -11.12434813141332   16.90211745127128   -1.54590321486744
C         -10.79550224446083   18.34679848802075   -1.58130591707634
C         -10.12002767723121   18.79260279311335   -0.21412213731257
C         -10.62897890502379   20.09337227550597    0.30684383992926
C         -10.76999327781025   21.27366022748079   -0.45999484506521
C         -11.24152206003021   22.29666587223943    0.36910345581433
C         -11.53450635498879   23.64306096467682    0.11337924731396
C         -11.96918772595255   24.41276117018534    1.16989874770907
C         -12.33384319627479   25.78789166321995    1.25381487681911
C         -12.69342719494642   26.07633392581442    2.56510201837681
C         -12.56149203537105   24.88283689705390    3.32554702737321
C         -12.11974402465360   23.85412303247745    2.49242905309047
C         -11.82979705488619   22.50572779151337    2.74646748343159
C         -11.39500439540198   21.73816301441588    1.69039280659346
C         -11.00406729679351   20.36611927153523    1.60814701763615
C         -13.12647281803455   27.33714245211752    3.12004004868244
C         -13.25969066388856   28.47573983949914    2.44550106508854
H          -0.48105734634778   -0.59979846925000    3.05518074022570
H          -2.37324393121823   -4.78712116862734    1.05863050304434
H           1.22702279506728   -2.33816679969807    4.44319974707224
H          -5.54024193327189   -0.62378613306140   -0.60474062271113
H          -6.99119407847446    1.20310514149041   -0.02191239604759
H          -3.13045866713496    4.26610453649656   -0.63387341093904
H          -2.79182325054805    1.83443969909394   -0.60421119973653
H          -9.50258902859756    4.32928642492889   -1.01303306038932
H          -8.91746089160014    2.66524109319686   -1.06542545342101
H          -7.71863803132047    5.00479800739700   -2.62749473424493
H          -8.74645017011681    3.73302648087578   -3.29073945277309
H          -7.13886112093183    3.33900636964940   -2.68167807041563
H          -8.61278336430722    2.68747538683060    1.37976724226739
H          -9.20604019595889    4.34794517613942    1.43467635014168
H          -6.49787839300915    3.40806536440789    2.50194924660159
H          -7.91552553243446    3.80187788349596    3.47576699162003
H          -7.09547205224856    5.06660207837550    2.55860541643818
H          -8.90718582470380    6.60631111374502    0.16918915577258
H          -5.25431089869944    8.79265309605765   -0.35014636720410
H          -3.99093357458271    6.70285204800819   -0.51205970876324
H          -8.99234725170701    8.92273720145958    0.27582318452001
H          -6.44665980791822   10.49589307748132   -0.37608472608862
H         -11.43790181262242   15.09519473846291    0.87413686051640
H         -11.51833167027774   17.65242933298275    0.93336228224441
H          -9.27183958333635   16.48615007797039   -0.78319453882175
H         -12.11125022003939   16.76963403696491   -1.33820094459661
H         -11.69384035652838   18.93371110175196   -1.77322362234841
H         -10.09486476429871   18.50409047016579   -2.40341600925417
H          -9.03624554000255   18.85610078419127   -0.35950279684284
H         -10.54130061780714   21.36315252664286   -1.50688145300888
H         -11.41510737585677   24.05645599470489   -0.87857236827872
H         -12.32403414678242   26.47498966554362    0.42828321977459
H         -12.76949703633646   24.79792472938384    4.37780601843568
H         -11.94097712649778   22.09310682018501    3.73965318672941
H         -10.98856835257869   19.67605781964957    2.43178113891342
H         -13.35355716558237   27.31554171172350    4.17905306986415
H         -13.04830779096396   28.54498391461621    1.39234445926587
H         -13.59015473538412   29.38024662058091    2.92590169205895
