114
 SCF done       -186.071213131462          0.000835332988
C          -8.76509627123316   -0.46012882890812    4.15217772196443
C          -8.39313784045286   -1.62374215440142    3.51646735966149
C          -8.70283919845271   -2.91272327436875    3.98808897723148
N          -8.93217430740422   -3.98885080009197    4.31942285443196
C          -7.63157954821447   -1.68974746300027    2.33395914471857
N          -6.99092917879119   -1.82845852424593    1.38955543161186
C          -9.44657060122924   -0.38533302131754    5.44274822085636
C          -9.57876680858153    0.97805290642146    5.79757004950743
C         -10.16495819667267    1.38618003680015    6.96891446713000
C         -10.64085861423035    0.39722562684056    7.83875817161313
C         -10.50785320370412   -0.96123405503627    7.47435513062815
C          -9.91646150417246   -1.37342894316169    6.28474363738156
S         -11.16825126598236   -2.01620144696377    8.68871305530169
C         -11.60346260799722   -0.63330649558799    9.65717706455135
C         -11.27400383472868    0.55659856302804    9.10217795336855
Br        -12.45225859065895   -0.89051308153809   11.31151867967959
C          -8.99704299040617    1.81705171397079    4.72631420318089
O          -9.02606149002872    3.03731011903248    4.68682655005664
C          -8.47840176245260    0.88323571853093    3.72421936380922
C          -7.98414736849618    1.23317279021052    2.47563538273590
C          -7.44170377496471    2.44639593121535    2.07066477433420
S          -7.43879827947718    2.80587025357030    0.35696442526470
C          -6.73814789439791    4.37078738278286    0.58327501366918
C          -6.45027179211682    4.59134858662032    1.94481577720540
C          -6.81792412574288    3.49873892724200    2.78096530275293
C          -6.47162338731358    3.51629054121234    4.13420329514016
C          -5.90324082711453    4.64289502474559    4.68645936702531
S          -5.63519300312809    4.78523086004210    6.41806110655252
C          -6.94785262923502    3.73978128358204    7.13690173529808
C          -6.46883327371060    2.35129930746259    7.51929465413488
C          -5.54181514854360    5.73273783757607    3.85623583276822
S          -4.77530136321227    7.18769445874338    4.52320639999344
C          -3.18218416194167    6.51726193596063    5.15774021851257
C          -2.88492626581860    7.04678774135691    6.54513432148175
C          -5.80493532339071    5.70210755257390    2.51114996269629
C          -6.49725690679977    5.25301577864094   -0.49385464753317
C          -6.67452988187993    4.91616631330462   -1.79601671055034
C          -6.42588927431268    5.72892709393650   -2.94682115893887
C          -6.43632714093823    7.07058544582146   -3.06157719050185
C          -6.85506434282063    8.03027075077669   -1.99608268330473
C          -6.12375751029802    7.70008913425352   -4.39757547252802
N          -7.33857344813800    8.13823390246022   -5.04706978844907
C          -7.76064260378632    9.41818628035541   -5.07975912877370
C          -9.02070111553521    9.80091132021482   -5.42746725178626
C          -9.40839842988554   11.14114766357268   -5.57819064385547
C         -10.66280505455025   11.55096595595158   -5.95778039224511
C         -11.10328934949730   12.87491855732367   -6.17934810978656
C         -12.40252672553905   12.97517224821652   -6.58415020015274
C         -13.06609593178252   11.73646027509544   -6.69257604439088
S         -11.98585998795667   10.43023565412917   -6.26873382443240
C         -14.37801742783767   11.50061986131395   -7.07249503032667
C         -15.34197081802769   12.43204773578472   -7.49907602802416
C         -16.54658459459509   11.87070440700848   -7.81623622035653
C         -16.60038232072478   10.47116136036434   -7.64563934302609
S         -15.05362634190666    9.88309377429650   -7.07580040003804
C         -17.70084078372313    9.67112116615866   -7.88543444345670
C         -17.81595846248607    8.29986391236915   -7.69355249279494
S         -16.52979849936491    7.31758645988116   -7.05428977213049
C         -17.48001301311374    5.86675336406549   -7.10670210834302
C         -18.75970591737969    6.12954589244752   -7.61384138078312
C         -18.95833733749127    7.49926652320257   -7.94892557281997
C         -20.18610615924841    7.90575471767083   -8.47626477505188
C         -21.20859770627659    6.99949397037403   -8.67391528440342
C         -22.47827901356523    7.43965949334757   -9.24483524580737
C         -23.01287551032633    8.64256794927213   -9.07459650013692
C         -21.01251933102826    5.62932660527080   -8.33545837270334
C         -22.12173650016969    4.63900452461166   -8.52599176390382
C         -19.81415656883451    5.21849606637726   -7.81595880137796
C         -16.95395124332230    4.61714808611248   -6.66821840329321
C         -15.72321355238730    4.43255309966121   -6.18059934522116
H         -10.25474835632248    2.43361980466281    7.21237270859541
H          -9.84215592915752   -2.42213019520840    6.05065714452069
H         -11.47045489817427    1.50830093129954    9.56147764237913
H          -8.07177678708951    0.48896685570628    1.69223964017422
H          -6.64274565768513    2.64040836842986    4.73269586852413
H          -7.76590836304071    3.71794304221683    6.41723077835437
H          -7.26579138461557    4.28659279702172    8.02541671507463
H          -6.10501956137479    1.79880052781815    6.65516756188061
H          -7.29101043565864    1.78996344014950    7.96104975564482
H          -5.66046101638153    2.41450982492634    8.24484123681011
H          -2.41684527565281    6.82463436503563    4.44437513051706
H          -3.26719770848801    5.43289935118324    5.15572150575981
H          -2.83514687318620    8.13294891178851    6.53450913533754
H          -1.93086079692667    6.65517532709329    6.89212965228063
H          -3.66405182507413    6.73959006927482    7.23779552034836
H          -5.50705649868359    6.53946739968156    1.90072697733568
H          -6.10200915876015    6.22126028035739   -0.22973173555435
H          -6.97518393471984    3.89658264522089   -2.00829345440104
H          -6.21046695557380    5.15967170162245   -3.84448088280661
H          -7.54030180719295    7.56338008385169   -1.29287434343315
H          -7.34791055099248    8.89298341924435   -2.44438916856376
H          -5.98840022074985    8.39636732803016   -1.44415031138561
H          -5.61726752855113    6.98111195584814   -5.04964934982559
H          -5.47475857513092    8.56951998312555   -4.26627624401640
H          -8.04185310638787    7.42472511528831   -5.18053566315082
H          -7.00285312319710   10.16178794214662   -4.86961642044965
H          -9.76567959992908    9.04149899808678   -5.62543055866175
H          -8.66860271098559   11.91131583178885   -5.40190401562344
H         -10.44446862846679   13.71419335089802   -6.03990381017211
H         -12.89807082316753   13.90445937443084   -6.80101680688212
H         -15.12873984587313   13.48357073839276   -7.57043101765449
H         -17.40030730945941   12.42537423502553   -8.16458869147657
H         -18.57925986012307   10.18024585969960   -8.25998262440430
H         -20.33214743845051    8.93699735734750   -8.75817969686380
H         -23.00760594608530    6.70979730542731   -9.84245587429404
H         -22.55046752346345    9.39551947120297   -8.45840663242958
H         -23.94951421830542    8.91305655230015   -9.53137411652806
H         -22.33694322518782    4.50150847652225   -9.58593132049295
H         -21.84614215976401    3.67375600267440   -8.10830930231595
H         -23.03268140400927    4.98225137140516   -8.03798177722401
H         -19.67174735627255    4.18002222725540   -7.55600618671870
H         -17.62941738371406    3.77561238335919   -6.74811537284558
H         -15.02824344481653    5.25055716823409   -6.08819253664903
H         -15.38187955373664    3.46359966570936   -5.86356013379283
