96
 SCF done       -205.519830402975          0.000719076381
C          -7.76501258411957   -0.50621709506877   -0.57068019987912
C          -6.78187244067650   -1.21816921962402    0.06229264081609
C          -6.97138661300680   -2.50388329868335    0.61071522125801
N          -7.06773042558860   -3.55074078613773    1.07202589318629
C          -5.47356629775538   -0.74845442890733    0.30635668444323
N          -4.39804441892468   -0.43260891654129    0.55497028855813
C          -9.14861591265801   -0.92698569859107   -0.74536744191782
C          -9.89720346518086    0.16769431330782   -1.24769034176819
C         -11.23695448879981    0.07634443779405   -1.54019891827635
C         -11.86752341974606   -1.15384092168054   -1.32846741926895
C         -11.11976812132348   -2.22943004377210   -0.79260128642915
C          -9.76455782702380   -2.13891940437999   -0.49958420994954
S         -12.10444780701662   -3.64294716240016   -0.56975554051922
C         -13.48554312488586   -2.78259563756912   -1.20436819301170
C         -13.22361807819277   -1.50714836271928   -1.56907874003043
Br        -15.14447871288397   -3.64850650593787   -1.30902893946375
C          -9.00849217002181    1.33261855996718   -1.38287836724355
O          -9.33463449326381    2.46806539805820   -1.68219180919220
C          -7.65252380077817    0.84303790493477   -1.09217916017107
C          -6.48976573570887    1.50515340031938   -1.36532602821865
C          -6.30465005441142    2.82042562324165   -1.82340803171606
S          -7.50585297910759    4.06005773634192   -1.90651859745498
C          -6.33024862965994    5.24905513847728   -2.40222549239288
C          -5.05312579710500    4.67616601570412   -2.53054826874520
C          -5.04425831587908    3.32600120141162   -2.20342802603390
S          -3.67613954813675    2.22695648801813   -2.29523449884706
C          -2.23002740916433    3.13133252612208   -2.76372122455081
O          -1.23374034162301    2.49502424332379   -2.96591159711755
C          -2.19449439452583    4.63593898024768   -2.89391355710292
O          -1.14396484322607    5.20156968404946   -3.01940172044234
S          -3.65055760980166    5.64012601722844   -2.96147007776711
C          -6.77632834083880    6.57452879799922   -2.51289918319771
C          -6.09443403761721    7.69092388337822   -2.93344755891289
C          -6.50361195806780    9.01235239549403   -2.70671369618542
C          -7.41503635448863    9.44381245197006   -1.76123908324084
C          -7.69823682542586   10.78685784434648   -1.41357565859966
C          -8.50352988187261   10.93425446583620   -0.31798113002036
C          -8.91168251368222    9.71003807240942    0.24411358507537
S          -8.26739949223344    8.37452552951719   -0.67184085947098
C          -9.67170890768704    9.41564787191958    1.36758758718036
C         -10.20012390103945   10.23266832461627    2.38166643862364
C         -10.79477392360292    9.52655309501127    3.39002118318331
C         -10.76976288511431    8.11901112667035    3.22085664569159
S          -9.99344368486295    7.73183809691704    1.71238671819924
C         -11.34787713875486    7.21762746863184    4.09176092836410
C         -11.44467731771626    5.82057653128239    4.07639296241173
S         -12.70696237522315    5.16055195442627    5.09953505176566
C         -12.40236534951656    3.53686757390364    4.57695269908343
C         -11.33442128497873    3.51745318592869    3.67665990374549
C         -10.78229262340095    4.77161192591210    3.40639592451744
S          -9.29494406173026    5.01172922570789    2.50476165089130
C          -8.78312341985089    3.51159016020632    1.72874987020977
O          -7.79623847335078    3.57472032793243    1.04092385367048
C          -9.48215717717056    2.19646268526165    1.91511847921971
O          -9.07344277474005    1.21463448631733    1.34634259380039
S         -10.87389624782529    1.97552156486289    2.96277907941224
C         -13.18889542019023    2.43491391015119    4.94780200973983
C         -14.27755852499971    2.46912845665794    5.76642831584807
C         -15.10047169737039    1.35113917279688    6.02788598431647
C         -15.25684056316069    0.21462227716264    5.28391525999159
C         -14.88486145519864   -0.13387363428320    3.93089626810370
C         -14.78411902774906    0.71349934263799    2.85501492184907
C         -14.48289571977014    0.29856544216200    1.54641628185940
N         -14.20904766027500    0.04055319493851    0.46116834520317
C         -15.02147489306736    2.10145335681619    2.89926032892279
N         -15.23073471807271    3.22917707117427    2.84452465010312
C         -14.89884030666606   -1.58996215944083    3.83751515941581
C         -15.51005280539382   -2.11277343814625    5.00525701130751
C         -15.83304417149535   -1.00038819310743    5.92217925641966
O         -16.40131890817906   -1.05754218686932    6.98822180072230
C         -15.71652880872619   -3.45819794069100    5.18715881891984
C         -15.28366552070726   -4.32769312011466    4.17970193208156
C         -14.64741778433637   -3.79765633591674    3.03054930887864
C         -14.45179031874236   -2.43491188203418    2.84017139625036
S         -14.17118804578101   -5.05336070643771    1.93111701503651
C         -14.83606282479834   -6.25440035644415    3.00189715328368
C         -15.38120632036456   -5.74466469648628    4.13251795958746
Br        -14.74461675820006   -8.06442202664151    2.52601809547200
H         -11.78631204616864    0.92360896038297   -1.91924625490973
H          -9.23487246302601   -2.99100176131203   -0.10736224101409
H         -13.95724959921342   -0.83312663234158   -1.96924965552437
H          -5.56499674019267    0.95437118349712   -1.23495241399835
H          -7.81037283814199    6.68987731949701   -2.21674995992919
H          -5.16202925875340    7.56841811465083   -3.46534045350885
H          -5.97414649746721    9.79184437797169   -3.23891478498951
H          -7.27747947053009   11.60813746843985   -1.96672768404517
H          -8.79534267786713   11.88168222116679    0.09837165071429
H         -10.11190860446756   11.30405486786917    2.36033091455936
H         -11.24271978391740    9.97536429380632    4.25880571829222
H         -11.90513928137394    7.67666623266342    4.90076796647617
H         -12.87434709325173    1.48804694265642    4.52703683866540
H         -14.50932457654013    3.39121656710848    6.28323887558738
H         -15.65422504697137    1.35774592645078    6.96127895963210
H         -16.19621692996553   -3.83075172028623    6.07848574308376
H         -13.95813696797086   -2.07039870551821    1.95407316667578
H         -15.83426705821927   -6.34227043654403    4.90217531540817
