140
 SCF done       -218.481685658098          0.000767051325
C          -3.32001483678519   -0.48064273216853    0.78428390652175
C          -4.26967540569423   -1.46595413689974    0.89378162770044
C          -4.00315779335858   -2.84068930609966    0.72918301417190
N          -3.85047852211243   -3.97290906993683    0.61220944231561
C          -5.63742418594207   -1.27220302885781    1.17763630393421
N          -6.76584895230105   -1.21423145551512    1.38677334190436
C          -1.92215155783298   -0.70027110177580    0.43514598632512
C          -1.26696762185221    0.55321652774174    0.38190551279506
C           0.06413059962926    0.68525984658728    0.06935602289689
C           0.78565481912341   -0.47899632701551   -0.21290089567032
C           0.12461591306153   -1.72881725081439   -0.15522327354004
C          -1.22033283098245   -1.86151696432013    0.16653006495958
S           1.20157486084385   -3.03862152203051   -0.53621745304235
C           2.50525387829502   -1.90377800434677   -0.76798522219251
C           2.15556519603708   -0.61089024008710   -0.56919416704751
Br          4.20546661179332   -2.53295850832857   -1.25112865987881
C          -2.22836107813797    1.62471287376775    0.70458817888945
O          -1.95118784116592    2.80165255868734    0.82689271995049
C          -3.52478855660231    0.95101401042072    0.93462599841926
C          -4.67807961512495    1.53138618288097    1.37930702058067
C          -5.04222607847521    2.91387915149010    1.43505289254045
C          -5.99838093301014    3.29365781268029    2.39988594061096
C          -6.38908155603791    4.60308193050129    2.50026241400013
C          -5.81762502872704    5.57222056811562    1.65112748224067
C          -4.93199938107752    5.19861014368440    0.64661672073786
C          -4.55257239314187    3.87946054812969    0.54049042048274
C          -6.32599387798898    6.86780564200004    2.02321093362559
C          -7.25337973863270    6.70246344985867    3.06690420590347
C          -7.35529743714526    5.24704554087096    3.47363853626736
C          -8.81008804756874    4.78055110779113    3.26073404898085
C          -9.09442335730592    3.31263206116124    3.55288218660093
C          -6.81713858295448    5.01485045500830    4.90218785630716
C          -7.66255313753995    5.58032432162402    6.03580337191618
C          -7.95734867876933    7.78606017107933    3.53106587563415
C          -7.69947521016798    9.06668420470140    3.02047681391619
C          -6.71106748849138    9.22092744077711    2.03959929313041
C          -6.03762559890926    8.13282399400896    1.52722782681139
C          -8.51917780840308   10.16154752393511    3.49247983659712
C          -8.33179308518455   11.47158413533000    3.27473271967655
C          -9.29311546729812   12.49566687007775    3.65529876436963
C          -8.94613532779973   13.80428649989559    4.02469326223713
N          -7.70528623855591   14.37893796063244    4.24728703546189
C          -6.54642255899865   13.64401266387660    4.71309955406728
C          -6.88633836534295   12.74203621705937    5.89835595330814
C          -7.89420648785791   15.72792942568316    4.48494666633240
C          -9.27849129240710   16.01490823083705    4.48489463912101
C          -9.95136107031119   14.78461512647573    4.18958953409175
C         -11.29729072418140   14.47322835934300    4.06658022134504
C         -11.64034555009088   13.16997757692216    3.76790341546615
C         -10.65731980962695   12.21460602633777    3.55779117810347
C          -9.75611754241778   17.28991292764957    4.74684381421365
C          -8.83613006059690   18.28889897326781    4.99930884609218
C          -7.47695243814705   18.02614997708252    4.94627270377563
C          -6.95326275863191   16.75827979935110    4.66691066589913
C          -5.52954496830904   16.58916362223536    4.46551894259192
C          -4.58241639939911   17.38628031967444    5.01460240898565
C          -3.19155387329288   17.35465227433814    4.74832129224202
C          -2.42618139215682   16.38505110973876    4.16160968877885
C          -1.05491716062417   16.55098111402996    3.82745119715740
C          -0.46825581494052   15.46119678136909    3.27208317066780
C          -1.31828053681324   14.33340032810885    3.16879601977731
S          -2.92144625898554   14.74139861480935    3.76018579066866
C          -0.95818072228129   13.09415171832299    2.68944017535213
C           0.25356632489847   12.78347051284178    2.02353348401810
C           0.36462182469760   11.48637603229424    1.64887865879187
C          -0.72657400600682   10.65256047904590    2.02947155181330
S          -1.94096034143165   11.64751903065500    2.84021519166185
C          -0.74811377696531    9.31291787738541    1.78394539111090
C          -1.64118207345386    8.27640715488718    2.19818186757562
C          -1.39978039657966    6.96364768210752    1.71433435594359
O          -0.36556377357406    6.82924295680779    0.83874900743282
C          -0.22309910884775    5.64503468592016    0.07792798007458
C          -1.23148901791445    5.58243881543691   -1.06953997598191
C          -0.98020387029473    4.37489258141921   -1.96072868605291
C          -2.18150257925911    5.91622284953219    2.18149150943355
C          -3.17054556515558    6.14136308163205    3.11782471198382
C          -3.44510796030363    7.42933162203127    3.58076975326573
C          -2.68577228092404    8.48388012703961    3.10672921861618
O          -4.46708782091220    7.52865277345406    4.48182884511769
C          -4.67795425514530    8.75568206457748    5.14749028904944
C          -3.61020328734678    9.02856926163125    6.20985102287138
C          -3.79938948217692   10.39153932482276    6.85911562610224
H           0.53546916623030    1.65554463041107    0.03869600884757
H          -1.67452601996533   -2.83735254898422    0.20016122179598
H           2.83396072018059    0.21667051047542   -0.66899773388868
H          -5.43375407783407    0.86213433267651    1.77383435632265
H          -6.37888543615157    2.53976905488101    3.07253509184798
H          -4.54559749541408    5.93914085755219   -0.03745147949025
H          -3.88839737938617    3.57526825051460   -0.25162248299762
H          -9.07365265971759    4.99015979563393    2.22015601515621
H          -9.45514382263940    5.39887243572309    3.88704714768154
H          -8.59322071343540    2.66625274392307    2.83836527458529
H         -10.16419625634608    3.13076816130774    3.47134639204240
H          -8.78260921176874    3.03934859425153    4.55735142903917
H          -5.82556146082273    5.47125639022392    4.94946189074491
H          -6.69769904099024    3.94005810056400    5.05134313932245
H          -7.71474271221633    6.66338135573396    5.97762528823389
H          -7.20370354673249    5.31916426294468    6.98745961044625
H          -8.67109457982042    5.17507126273540    6.02653361819747
H          -8.72425330479514    7.67380166559962    4.28344136840095
H          -6.49676042096019   10.20448054947601    1.65012132003186
H          -5.29888292784999    8.26151472311515    0.75008365003994
H          -9.37567884376170    9.85857334119967    4.08324472102756
H          -7.45144711870307   11.81582796073851    2.75182919267072
H          -5.80529712673251   14.37082166857650    5.04462892792076
H          -6.10391853599978   13.05873969928830    3.90297328341581
H          -7.37721708830203   13.32276286708735    6.67676305333318
H          -5.96972508542659   12.32253745425635    6.30220285421382
H          -7.54122301164208   11.92640340599861    5.60549251898936
H         -12.05015519854539   15.23540673418563    4.19538965898619
H         -12.67876829844812   12.89226540580101    3.66600569114166
H         -10.95424880842656   11.22108626283380    3.25718681302212
H         -10.81621015878730   17.49091649017247    4.74473847187786
H          -9.17203265887965   19.29385803978528    5.20729507158772
H          -6.79158998394781   18.84995839553059    5.07168931437496
H          -5.22736839627764   15.83843836614922    3.74914434676476
H          -4.89335942498785   18.16513295180195    5.69877691135402
H          -2.64233551606968   18.24006478484258    5.04735064362959
H          -0.55413852821592   17.48735718288047    4.00129856379954
H           0.56163692176521   15.42344617308524    2.96618747121714
H           0.99435940490081   13.53497270829001    1.81837491115490
H           1.20941669484870   11.07709409899411    1.12335702843193
H           0.09272026255778    8.95346058130117    1.20459494577551
H          -0.30429661359877    4.75070518415637    0.70267135190424
H           0.79428180383239    5.70322555606136   -0.32161640955869
H          -1.15740318825458    6.50390879295023   -1.65180349726356
H          -2.23548579443039    5.52604413649957   -0.64726709891072
H           0.01926692248472    4.41256154786415   -2.38903079511425
H          -1.70172063774154    4.34543649823502   -2.77369987506703
H          -1.07467079564685    3.46076944937282   -1.38050500156961
H          -2.02582225834880    4.90801498436126    1.83543627535248
H          -3.74533570098536    5.31562666787628    3.50448437691389
H          -2.86158998848021    9.48949068233874    3.44801000293673
H          -5.65943204251426    8.64807767383413    5.61794277438588
H          -4.73574258419583    9.58425960779280    4.43090668829303
H          -2.62348666568221    8.97657210852011    5.74576158048585
H          -3.66195990660189    8.24162595110352    6.96488126865045
H          -3.71387752547191   11.18113069689336    6.11507962764924
H          -3.04104348267721   10.55522471810064    7.62041983144726
H          -4.77827125851731   10.45690205756891    7.32948978865078
