114
 SCF done       -197.692258010788          0.000436393860
C          -1.92604083203185   -3.04653354364727    5.22092873538948
C          -2.36290347780228   -4.27453048278187    4.76565825927622
C          -1.74117721804357   -5.49777739389158    5.07429340809295
N          -1.28496631663079   -6.53189453739268    5.28633614342218
C          -3.47673472955806   -4.49895272444687    3.93569327430852
N          -4.36586289790458   -4.78397687200925    3.26370664010726
C          -0.76028158904173   -2.84533831234898    6.08363004034020
C          -0.61898173183016   -1.45936641165560    6.33214642921357
C           0.37952538177016   -0.94511613397471    7.11961536454672
C           1.28651756392756   -1.84418023989797    7.69410864071989
C           1.13857621973772   -3.22520695258965    7.43911298221469
C           0.12657941319198   -3.74568643994927    6.63919930942673
S           2.36281540099328   -4.15953122737067    8.24727477493104
C           3.04432607395130   -2.69756338196238    8.90920229371725
C           2.39329330966561   -1.56879463430313    8.54457167063996
Br          4.55438394889497   -2.80026263031831   10.01971552667607
C          -1.69939313591807   -0.72989057376257    5.62872784122876
O          -1.86418043893754    0.47695898235568    5.63174492274667
C          -2.50251278000374   -1.76149512578005    4.95731035667329
C          -3.65588040151196   -1.50779945621318    4.22307780024637
C          -4.20744494656215   -0.25978820310898    4.01160926653498
C          -5.41060131005612   -0.07004119261291    3.33468828933853
C          -6.08814931654868    1.13992800316243    3.13186056054772
C          -7.29940450010599    1.00250144364719    2.49301892084417
C          -7.60747015221441   -0.31982018288664    2.16236570189967
S          -6.32814149486799   -1.39509648049669    2.65881444015690
C          -8.77938079287823   -0.82257194669933    1.57831691163727
C          -9.96383986270014   -0.14582538148635    1.28333287888533
C         -10.96748049798725   -0.97173615802094    0.81957129453218
C         -10.59533901882117   -2.31169402919015    0.71632735020241
S          -8.93235658586829   -2.51686387644700    1.20993011466876
C         -11.40184168487586   -3.40211278891450    0.35957490461718
C         -10.93483974089284   -4.67812963003737    0.20830932906090
C         -11.72877862150975   -5.81882319793403    0.03031795877861
C         -11.27576461004206   -7.12391228226140   -0.16214567670265
C         -12.27914172743962   -8.06930975282745   -0.17606469149123
C         -13.55302883107824   -7.53428664226766    0.01956613566194
S         -13.47004307131032   -5.79643049801296    0.15958254723162
C         -14.75394783241890   -8.22941456049353    0.21315032021224
C         -14.92812376659104   -9.61738256604308    0.25674706588246
C         -16.19224878964540   -9.99940414807738    0.63391769095300
C         -17.05624876763892   -8.92531067619629    0.89634670345478
S         -16.24468595006120   -7.40779968635440    0.58984806650349
C         -18.33088556447755   -9.01597990548821    1.43790567546046
C         -19.17729241504164   -7.93089885445187    1.65820401764743
C         -20.35721857472810   -8.00294394977783    2.40773725588630
O         -21.32918288028770   -7.02963779459605    2.31516362355468
C         -20.98811366423885   -5.91250759520894    1.61761821270363
C         -19.70454054055995   -5.76205817179786    1.01577424859959
C         -19.54476972443326   -4.56098598029166    0.40713684320395
S         -20.96409142548704   -3.59435684767266    0.55589029709084
C         -21.77853666980962   -4.82136663450391    1.44849401653509
O         -18.78009824443820   -6.75892083744887    1.04115042461066
C         -20.67759840082749   -9.00609609715664    3.34917923891360
C         -19.78014256911655   -9.81399163516148    3.98444703616095
C         -20.05748437648280  -10.79361822136632    4.98222155812871
C         -18.98079242796236  -11.40151870959500    5.61235222079625
C         -19.17736351571218  -12.34546265458252    6.63045501606031
C         -18.28379029513190  -13.07515617580994    7.41383521354278
C         -16.79114777146431  -13.08315095032170    7.38097119075533
C         -16.26772947916702  -13.58226121966440    6.02370732380194
N         -16.64992320221702  -14.97345890054699    5.85572405174689
C         -16.21231565555221  -11.70471719704851    7.74225249530577
N         -16.57651569269752  -11.38478231545024    9.11130487077801
C         -19.07886041656291  -13.86804726528837    8.31674684398739
C         -18.71713904305364  -14.73552462555142    9.28349610239373
C         -19.72792420802799  -15.41567892260674   10.13560704292934
C         -21.14856118045373  -15.13256724594551    9.76355783845433
C         -21.49455804723557  -14.27076700006757    8.79088730482673
C         -20.49515248096397  -13.60115554607707    8.04079853453226
C         -20.54547213908386  -12.67891428459069    7.01731956002498
C         -21.62901585103683  -12.06428766989688    6.34488205827101
C         -21.39232086387592  -11.16104562043800    5.36288364485257
C         -19.49579222125330  -14.97654864536713   11.56923115438713
C         -19.14173911018281  -15.78620642407113   12.54728456073225
H           0.45958798759151    0.11691025629635    7.29147890363280
H           0.05769237550473   -4.80830040038947    6.47790902564658
H           2.67841883094130   -0.58189382972657    8.86073509426580
H          -4.18079891025216   -2.35491224299251    3.79855779447540
H          -3.71176704778542    0.61381772557280    4.40926895581610
H          -5.68295200905865    2.07746756101417    3.46849488945442
H          -7.95627594158469    1.82245686644294    2.26385329218206
H         -10.07694803357205    0.91254044241299    1.43363882732690
H         -11.95508717708167   -0.63230760572873    0.56088392772155
H         -12.45860617685067   -3.20622018905511    0.22648860018022
H          -9.86683538476683   -4.84907458383873    0.26444176182665
H         -10.23049807068488   -7.35191552485079   -0.27192408382620
H         -12.10786945442342   -9.12305997851561   -0.30050240368838
H         -14.13325403097301  -10.30681765123588    0.03715407391423
H         -16.50953344071496  -11.02108211229871    0.74644132892366
H         -18.69855808167137   -9.99943179284241    1.68290112355621
H         -18.68351059653006   -4.19760178377521   -0.11264540399943
H         -22.77919350875787   -4.67249193708124    1.79601165601543
H         -21.71594187074203   -9.00783635956575    3.64962920744541
H         -18.72915112589542   -9.66350001975867    3.77486897689895
H         -17.97968242296974  -11.12577507387643    5.31236073276781
H         -16.43535849685563  -13.78622111614087    8.13783028601068
H         -15.17500294648688  -13.53561131879037    6.02068979927075
H         -16.63926828740427  -12.92783063632604    5.21886750095017
H         -17.66177736920961  -15.05502500431706    5.84019035462809
H         -16.29029766933830  -15.34099575100203    4.98214295254007
H         -16.55593626222901  -10.95376559529106    7.01310441931289
H         -15.12074092017251  -11.75028848014177    7.69121053547670
H         -17.58566211027253  -11.30788188289420    9.19174312235922
H         -16.16985151971434  -10.49955161572912    9.39155915321479
H         -17.68053064109103  -14.94363098545216    9.50678841197850
H         -19.55120694966541  -16.49932492940179   10.09325861096184
H         -21.89680437920276  -15.64661991637968   10.34803333992275
H         -22.53417802799925  -14.08395166237321    8.56268562781543
H         -22.63940513274178  -12.32555947502310    6.62423592564797
H         -22.21927905265297  -10.70059652243148    4.84602158865502
H         -19.64908888580219  -13.92051946489138   11.74138394255187
H         -18.98404421914148  -16.84101926283942   12.39115482275395
H         -18.99532427239951  -15.42643171797694   13.55145335931260
