92
 SCF done       -189.339903127254          0.000722127267
C          -7.35253489486047    1.80428669100626    2.04118379254305
C          -6.86921071035059    1.64374196195675    3.30902755537032
C          -7.64599995571642    1.81145117380468    4.47745532391931
N          -8.23006008297450    1.92482103549444    5.45822298147746
C          -5.53572693279389    1.31517472505614    3.64251874099976
N          -4.47560645502080    1.06437917449507    4.00217889098980
C          -8.70095778564447    2.21703250189755    1.68745776169132
C          -8.76877383219231    2.41482711969092    0.28583880890446
C          -9.91814931766346    2.82095050567312   -0.35080252288132
C         -11.05577804711792    3.03911174251898    0.43103546876105
C         -10.98198791943629    2.83014829248329    1.83121033974868
C          -9.82119865261060    2.42300963476296    2.47456718718103
S         -12.50450386742699    3.14472709579719    2.60446152972850
C         -13.20987961992794    3.54932701568608    1.06155580905189
C         -12.35058187511769    3.45456572192788    0.01838853077152
Br        -15.01237567448699    4.05309032358668    0.97366523637898
C          -7.46612812367035    2.11106894295701   -0.33132393656879
O          -7.21484897382032    2.14296956636297   -1.51234333087562
C          -6.58450616977178    1.67273756716652    0.80244609173115
C          -5.36935134689421    1.10360013596745    0.68093023526023
C          -4.60525352101653    1.03915828897631   -0.55700300322854
N          -3.85301548570239   -0.04630028043607   -0.74725562403504
C          -3.20883465100073   -0.13525397576953   -1.89611881780044
C          -3.29039731960917    0.84442891776513   -2.87398622818831
C          -4.04065245074795    1.98474346387566   -2.55267479858913
N          -4.67320367413493    2.06326828333559   -1.38478035685773
C          -4.22230930810683    3.08050636468177   -3.47543366829118
C          -4.98871670469380    4.14363191879865   -3.14721260657547
C          -5.26688093959602    5.22650137628427   -4.02297810238948
C          -5.37741101770132    6.56597169247884   -3.71365161580674
N          -5.36708515823134    7.15647743486259   -2.43277543273920
O          -5.45757335515609    8.36882997690927   -2.37815030032475
O          -5.28224561687984    6.42794275090302   -1.45883081981356
C          -5.44388765238549    7.34016517233258   -4.93530890924160
C          -5.36174903784197    6.49878291144880   -5.99269542043124
C          -5.34713896248978    5.14591330178991   -5.50152052480927
C          -5.59450393128035    4.01487597494551   -6.23293901253522
C          -6.10529362096959    2.73487348175780   -5.75590768210196
C          -6.28576704225142    1.91780254665923   -6.81098704157268
C          -5.85947470425774    2.62724149972469   -8.00663775102714
N          -5.84911213107225    2.07511504785236   -9.30762893505196
O          -5.43117768376464    2.77264995766738  -10.21455590810127
O          -6.25819143563824    0.93863849833617   -9.43945195010712
C          -5.47684958462212    3.89719007080209   -7.68225933150083
C          -4.90319384452260    4.86721781054813   -8.62564142400473
N          -3.57796047391769    4.86350826623579   -8.74301833806624
C          -3.06228887428285    5.66860898928504   -9.65534789828768
C          -3.84329299734729    6.50086718830287  -10.43885585694729
C          -5.21931749022865    6.48690949378383  -10.18703890156774
N          -5.73539781132632    5.65608082771838   -9.27808091560209
C          -6.12948942014132    7.38644659928088  -10.86234188997080
C          -7.44121026844743    7.42499813468174  -10.55887493633654
C          -8.36300062525380    8.33326020082607  -11.15098398414992
C          -9.59906282126941    8.63955074248047  -10.68471763237277
C         -10.26556455381692    8.27343090474748   -9.44881868182786
C          -9.66415679566209    8.04035023146147   -8.24075592945357
C         -10.36567251677361    7.68500677584439   -7.06898606863504
N         -10.87876403040296    7.36592382105222   -6.09341266191396
C          -8.28994566585582    8.23406512743293   -7.98182550372888
N          -7.20307229285232    8.44182563768954   -7.67740789326256
C         -11.69825555711103    8.41604038160953   -9.67625210485211
C         -11.90100066041726    9.07359845484437  -10.91790015456865
C         -10.59665883081765    9.31521701696685  -11.56460827224218
O         -10.37235189360779    9.88927075185275  -12.60283111954394
C         -13.15227276923701    9.39683914605943  -11.38468937192976
C         -14.25390434360845    9.04922778799752  -10.59604791358696
C         -14.04156363655870    8.38228058886552   -9.36413400452817
C         -12.77693306266179    8.06047663757727   -8.88804751196345
S         -15.54032208865929    8.04169013075060   -8.55590147925224
C         -16.42053941086461    8.79295391837281   -9.86052294158797
C         -15.63354265171614    9.27266000782162  -10.85355704644256
Br        -18.29190316077693    8.87059853457946   -9.78926822211998
H          -9.93643808581479    2.96689319321464   -1.41942964423972
H          -9.81676878145348    2.27385364011720    3.54125965132947
H         -12.61735647277133    3.66872417481464   -1.00033571804981
H          -4.89680532137661    0.61508266328131    1.52199166834748
H          -2.60919384565098   -1.02612705587529   -2.03096779408002
H          -2.79471350846948    0.74434012395044   -3.82554039955196
H          -3.73500379834826    3.00363594756896   -4.43757658124519
H          -5.35236285822853    4.20691521670557   -2.12834629817731
H          -5.54478910502950    8.40861737282998   -4.95681743024529
H          -5.44334686037489    6.77634214603220   -7.02387076379882
H          -6.37044627380337    2.53563216373858   -4.73634914241725
H          -6.67664873847626    0.91884293485096   -6.82493980879544
H          -1.98438951734605    5.64110017157454   -9.74762829515929
H          -3.41455710179487    7.14303704421206  -11.19015281374858
H          -5.70046796444766    8.06982198368980  -11.58179393656639
H          -7.80372107977338    6.71964611565900   -9.82354561449056
H          -8.08349322886115    8.79248447204929  -12.09328239545492
H         -13.27766927131126    9.90438595587526  -12.32815682750790
H         -12.66237456337257    7.54834686875590   -7.94693170313199
H         -16.00949985360200    9.76421515759274  -11.73210816233333
