90
 SCF done       -188.299639103134          0.000680843061
C          -6.76870613345877    3.43538754797109   10.71354129597090
C          -6.27207276810549    2.15664368809525   10.69240520773670
C          -6.00181855827700    1.39297614277008   11.84686692777918
N          -5.77299525996925    0.71670543699598   12.74577780660914
C          -5.94191296206809    1.44067639151566    9.52307066795645
N          -5.63682993891636    0.81053531397982    8.61290977981322
C          -7.02862918899814    4.22997203747991   11.90799035143083
C          -7.44908401257153    5.52496029786238   11.51451917542070
C          -7.75754953470831    6.51095555576032   12.41948809484487
C          -7.63886221889739    6.20753262171856   13.78002727444264
C          -7.22309158195466    4.90982283124074   14.16441569685268
C          -6.91614928486240    3.91114317485485   13.24857427051669
S          -7.15198551989129    4.74717138574885   15.89226150012005
C          -7.66922674176443    6.40249879394935   16.07334057031360
C          -7.88711362950305    7.04525684843683   14.90103390967009
Br         -7.87693451863440    7.12315145458311   17.79140731942474
C          -7.50671458742547    5.59587495839395   10.04307808373190
O          -7.95757447416894    6.50199482784345    9.37585122360241
C          -7.04464052260993    4.26938569667356    9.56293228892155
C          -7.05410563243419    3.88163484272169    8.25043874917990
C          -7.09266335243446    4.75858596711363    7.15240100761879
S          -7.63407207203827    4.20717087985208    5.56940116162742
C          -7.32326516873092    5.73747710290318    4.76646294586448
C          -6.81464812201163    6.60489325852898    5.72416249521031
C          -6.68242005832695    6.07547917137543    7.01080993902033
O          -6.07114397203827    7.00511117781588    7.78301790065359
C          -5.87404704151595    8.08740884083116    7.00171302913960
S          -5.17802022670790    9.45770175832073    7.48699501039250
O          -6.31879120151597    7.87244610315221    5.73900603990415
C          -7.54179414540344    5.92910796448223    3.39577444285635
C          -7.24054519014111    7.11387281562130    2.76526706852809
C          -7.34273601429489    7.37223521502839    1.39999837898612
C          -6.72669881011738    8.45074324047041    0.72740335344070
C          -6.04188015064894    9.56597987717250    1.23463593472490
C          -5.49730303670583   10.46489346842428    0.35751286762379
C          -5.61355208235052   10.28231549289673   -1.03432346062647
C          -6.27063964779475    9.20251163691245   -1.56180402760934
C          -6.84005665872420    8.25759097134581   -0.69203845262063
C          -7.53714259111859    7.05346520883615   -0.93963649093659
C          -8.02628475675483    6.58206362689120    0.36745934251715
C          -9.12730713994707    5.85063050057810    0.57373344558973
C          -7.69344690019727    6.37832489349132   -2.15187957141612
S          -7.16165403186138    7.02664129171662   -3.70883172884787
C          -7.55112884207473    5.58380148900548   -4.62966732055249
C          -8.08467318056709    4.66856273850280   -3.73985901863288
C          -8.16158697475038    5.09074306386883   -2.41136787634496
O          -8.65873248012558    4.05141699125132   -1.68002669441663
C          -8.87326635451859    3.03444733892873   -2.54713668681062
S          -9.46221785055368    1.59624551080258   -2.12212345132062
O          -8.53381693319391    3.38725669415691   -3.80851400795276
C          -7.34027458002161    5.50319251906679   -6.01531410011678
C          -7.67154750350732    4.41003071814999   -6.76253841846602
C          -7.45730726991761    4.27409560651506   -8.15040974706734
C          -7.22267036459205    5.21022280014494   -9.11886504469984
C          -7.36872452197009    6.64591055067364   -9.19357763558927
C          -8.26814397692318    7.42612585763506   -8.50967643912627
C          -8.41912214313279    8.81293973960764   -8.71234067745380
N          -8.56728930510600    9.94586091395408   -8.82360533111315
C          -9.19124524788079    6.93305975589701   -7.56804259366948
N          -9.96825261504165    6.58658367251592   -6.79695091386349
C          -6.56088699963052    7.10632919935140  -10.32102223949265
C          -6.12721847509184    5.97879855944307  -11.06240569481944
C          -6.59980766435385    4.75144236302983  -10.39405232888401
O          -6.47438996061201    3.60750215518637  -10.76451437397510
C          -5.36995430402675    6.09087441197583  -12.20281250311002
C          -5.01204399780695    7.37612481775745  -12.62397654368475
C          -5.43584487852857    8.49505172392348  -11.86736331294193
C          -6.21044282250904    8.38198614716045  -10.71889566045938
S          -4.86823562692209    9.98468354190146  -12.55691581530560
C          -4.08457401901317    9.09818530812689  -13.83807417429809
C          -4.23722548545160    7.75511854941752  -13.75406735794749
Br         -3.13576949255530   10.02933290676378  -15.16044587157761
H          -8.07332797020249    7.48781393735650   12.08858950433846
H          -6.60908858600733    2.93702423928454   13.59082700296049
H          -8.20963952458102    8.06778380058552   14.82822057360439
H          -7.04308021576150    2.82830451208168    8.00313240252686
H          -7.90194295283380    5.07682290900275    2.84130959731940
H          -6.80235992243366    7.89711839414902    3.36971656626162
H          -5.95946982462533    9.71616299208400    2.29994760486300
H          -4.97424633869138   11.33315457826848    0.72845420924222
H          -5.17749457921029   11.01748917925603   -1.69350457538208
H          -6.36187093965955    9.08859634506743   -2.62980365625289
H          -9.52419323547156    5.70395964551187    1.56304904211013
H          -9.69371339268776    5.42170288171626   -0.23194190290395
H          -6.85597872762132    6.35569686921420   -6.47032984628380
H          -8.06811891797914    3.54407240424428   -6.25049460834791
H          -7.40091422411153    3.25246377411574   -8.51668170608313
H          -5.06155286929581    5.21549208731791  -12.75232390958289
H          -6.50304509007846    9.26283983380934  -10.17184779584144
H          -3.82045937793971    7.05867565908276  -14.45842749509488
