117
 SCF done       -191.610281939297          0.000927653728
C         -11.17691015068212    9.93328043376883    0.89370519822296
C         -12.26117791409271    9.28691140306615    1.43736509883149
C         -13.29540980526385    9.92932410709946    2.14416474428717
N         -14.16523776924313   10.39881123858815    2.72885757651367
C         -12.46923502245104    7.89764407894311    1.35274258944784
N         -12.67186918883048    6.76748022259750    1.30523265006595
C         -10.91550114168623   11.36879283205906    0.96297563676838
C          -9.69433197363196   11.64588566224137    0.29460689153472
C          -9.17816779752171   12.91420107983521    0.18978665240745
C          -9.90048837629110   13.96249385487643    0.77004451218335
C         -11.11721095476114   13.67763818667059    1.43255297564343
C         -11.63939044453693   12.39365044398470    1.54014010029989
S         -11.84769941668500   15.11813209104715    2.07383477890476
C         -10.52591646267379   16.06998153884811    1.45132934780609
C          -9.58513366858984   15.34860991672795    0.79718252836756
Br        -10.51286494232777   17.92630522044324    1.72262422340225
C          -9.14648074881909   10.38616925310874   -0.22429550773661
O          -8.10755502831832   10.23484433701027   -0.86959412951160
C         -10.08795767760989    9.34081730927119    0.15993580046970
C          -9.88966200532037    8.02187084118064   -0.19802969748471
N          -8.80139835932171    7.67731185484077   -0.87560162130347
C          -8.44337052075601    6.43550376538781   -1.35551047237442
C          -9.09882059885529    5.25662600175047   -1.13378784071327
S          -8.32329058615911    3.93958176791422   -1.90009976796161
C          -7.10510170807765    4.96795446271121   -2.54886694704637
C          -7.27256304293025    6.27309089944390   -2.18276205647172
N          -6.50276712026638    7.35270376526881   -2.55841763313696
C          -5.18128588980406    7.37493687027851   -2.94666620734094
C          -4.28263279209629    6.38763219209557   -2.82194101919446
C          -2.89732355647078    6.45075574931600   -3.23647078915528
C          -2.07021643000971    5.35343967636711   -2.94774867456809
C          -0.74160137882580    5.37256085079247   -3.29926146401544
C          -0.21852299226560    6.47546896522136   -3.99517172661406
C          -1.02514316543050    7.56256425111005   -4.30031378520397
C          -2.34887079442708    7.54593041738595   -3.91528640993316
C           1.17044471692537    6.22198369908452   -4.29185435116769
C           1.51656043153706    4.95437615071344   -3.78999876610180
C           0.32365416223608    4.30829079713102   -3.10848030741482
C           0.69494771149396    4.09968975168763   -1.62537613899237
C          -0.39538379315156    3.52242231476246   -0.73215397240919
C          -0.15583087950867    3.02760558990355   -3.82148871069011
C           0.80722671084375    1.84745745809860   -3.80687952155177
C           2.80948316557958    4.50596339565983   -3.89878027693778
C           3.78449176401172    5.29565563940173   -4.53774954976435
C           3.40608930386609    6.54447898914378   -5.05720015212952
C           2.11642181437342    7.01059790484145   -4.93377627122198
C           5.12683369960033    4.79551687129714   -4.62790258947461
C           6.21611061764489    5.49201874254045   -5.04771548829100
C           7.51611716548046    4.96243509151933   -5.12558094651412
C           8.61001654139447    5.69499316117012   -5.51429313867148
C           9.94906845056535    5.25560391366630   -5.64382915381741
C          10.82187538034396    6.22112128883641   -6.05008584153886
C          10.22534037876458    7.48242082402662   -6.25898016982085
S           8.50821228092920    7.40102054252460   -5.93101931031773
C          10.82402798103202    8.66461323843816   -6.65340510560875
C          12.17785249410832    8.90045434676212   -6.97537871814147
C          12.44299834773967   10.18965142060726   -7.32638439850806
C          11.31952241774980   11.05422593488413   -7.29862933831321
S           9.90011369525458   10.14140479528587   -6.80983735005677
C          11.33015980386015   12.39130249030868   -7.60217149693162
C          10.25403770690920   13.30391636550601   -7.57195661981133
C          10.40862846433722   14.69216191785129   -7.92877814494736
C           9.19575317775316   15.33134048691562   -7.79388457137822
C           8.81116577363811   16.67467779288883   -8.01227093848375
C           7.50667184256505   17.00776034641624   -7.77862841850072
C           6.80062610405888   18.24842500056371   -7.89482048201077
C           5.48411934719478   18.04738854780060   -7.53398026037564
C           5.32596705933187   16.66599472347668   -7.17914363281489
C           6.54155151068686   16.02114059506524   -7.32165108634749
C           6.92048935305311   14.68324923077861   -7.10495078601406
C           8.23147523646291   14.34324092213545   -7.33928553283704
C           8.91970976960810   13.10800430365169   -7.21648494182056
C           4.45965391986509   19.06299993578864   -7.52172341721592
C           3.18569252058720   18.87463386047882   -7.18744380537423
H          -8.24659212395745   13.09487274557231   -0.32333770699338
H         -12.57093171422040   12.22818889134724    2.05499326142946
H          -8.70489747054354   15.77472653836798    0.35147558807301
H         -10.60274814963928    7.24876988499665    0.04760095677015
H          -8.16832315593734    8.47108758872806   -1.05394746265421
H          -9.98342777488070    5.08604941982829   -0.55474690573486
H          -6.36082648262799    4.55071074812623   -3.19326769008433
H          -6.94948350294135    8.25642542150090   -2.50965014969103
H          -4.89869527385146    8.33110728585259   -3.36245553357235
H          -4.57780941992878    5.46506418958870   -2.34404859279224
H          -2.50358505612038    4.49698222210774   -2.45218068110950
H          -0.62365356787596    8.40875622990303   -4.83816748939680
H          -2.97149205441669    8.39285853161935   -4.15849963370427
H           0.99835952547208    5.07145091421576   -1.22588335246890
H           1.56951922102571    3.44797945334148   -1.58478971591474
H          -1.23383965923780    4.20786234738203   -0.64967200640354
H           0.00582680575487    3.36261601415516    0.26686465717739
H          -0.75320529795910    2.56740928500296   -1.10779645538498
H          -0.37020919643468    3.29314421738113   -4.86046773805638
H          -1.09926204197222    2.72138131618669   -3.36601479308569
H           1.70774535550302    2.07356260423376   -4.37032479467502
H           0.32901761067279    0.98706749240509   -4.27130737475257
H           1.08323765571581    1.57189135686963   -2.79244121118426
H           3.11038088567729    3.55661881475984   -3.48056537277405
H           4.13782269354750    7.15355097368281   -5.56445133828467
H           1.84548594283220    7.97968823142416   -5.32613902805120
H           5.27198135091425    3.77002230567094   -4.30843428384718
H           6.11386560570970    6.52909442147090   -5.33805033517843
H           7.67256078013890    3.92283651971294   -4.86896298600561
H          10.22483571293282    4.23697042514517   -5.43348274063793
H          11.87482898105239    6.06054971878159   -6.19969497015272
H          12.91457932691910    8.11771823273274   -6.94258549220140
H          13.41706378237665   10.55343158088992   -7.60418331438170
H          12.28988152406947   12.79812858548046   -7.89844628426588
H          11.33463685446661   15.13752584540633   -8.24781313149936
H           9.53579901088598   17.40199660557538   -8.35142598128978
H           7.23732028825763   19.17786370289627   -8.21191715329516
H           4.40873683205577   16.21039593137377   -6.85348629201132
H           6.19861623139172   13.95436599029346   -6.76456238398585
H           8.46585651607930   12.19055320589321   -6.89608805719187
H           4.79362074779230   20.04986579447016   -7.81892835978884
H           2.80595809196755   17.91204306703064   -6.88949812122567
H           2.47318788551923   19.68116142572649   -7.20563140282498
