126
 SCF done       -217.386578787762          0.000622480469
C          -1.70209819532514   -0.72936502343510    0.15787934861493
C          -2.43279877150187   -1.68249966244219    0.82019954683331
C          -2.00768759480381   -3.01394619787431    1.00646431017911
N          -1.71280995046492   -4.10734357487752    1.19619304286323
C          -3.71578295824697   -1.48827627706656    1.37400842166427
N          -4.76728676679032   -1.42395002274461    1.83230837363156
C          -0.42505602630698   -0.95310653296171   -0.50551719313591
C          -0.07053862814990    0.22315216496363   -1.20765435343366
C           1.08614165925249    0.32893164182344   -1.94058865317003
C           1.93506420346155   -0.78187816966568   -1.98302266224363
C           1.57460259372431   -1.95264669068278   -1.27459094030018
C           0.40484090081042   -2.05912471407238   -0.53328908849743
S           2.76939878693089   -3.20225119757572   -1.45576993666539
C           3.72129625711420   -2.14965123629330   -2.46881453263087
C           3.17597626339125   -0.92560859430929   -2.66226444044951
Br          5.34643619642210   -2.76608669862256   -3.17401638003262
C          -1.10999471111679    1.25605886015130   -1.00959671928461
O          -1.08613812391570    2.37671770981329   -1.46882147776607
C          -2.10141880510245    0.64686792106486   -0.08696838178998
C          -3.08465134844302    1.29256282170671    0.60297995116427
C          -3.64337840182948    2.59584451757355    0.40592449970047
C          -4.21920693932341    3.23091506194731    1.52604154360812
C          -4.78022829898390    4.47342032635528    1.39329817045698
C          -4.77961925981630    5.11843432975673    0.13890889262562
C          -4.26232623662081    4.48075226206180   -0.98186754673039
C          -3.70350047943712    3.22840447744080   -0.84570685451800
C          -5.34691553524884    6.43597808341262    0.29746457198524
C          -5.69114365158873    6.61389411015937    1.64901970528867
C          -5.43298060093306    5.34858093844008    2.43862056915160
C          -6.81538733230750    4.79565832336312    2.86127183062635
C          -6.80884349336181    3.43005775972398    3.53538150186419
C          -4.52105944010836    5.59040933637714    3.64971908691600
C          -3.22086176239902    6.28758999031483    3.26555434766284
C          -6.21201310434903    7.80652552977555    2.08326718916185
C          -6.41391350849298    8.85242769486546    1.16921972167960
C          -6.07355816381119    8.65726096334074   -0.17696601730561
C          -5.54051307029965    7.46446384559586   -0.61690761139226
C          -6.94041530181569   10.10115261408447    1.65983855402107
C          -7.48336092326264   11.08414669980418    0.91530248917096
C          -7.99522284542511   12.29752293897637    1.46996699103003
S          -9.51810716905079   12.87385500222836    0.88748257241323
C          -9.66921269382852   14.08094602581184    2.13420394152030
C          -8.55298550822217   14.01521867544139    2.99721628272438
C          -7.56524372068267   13.06741370127655    2.55628085127676
C          -6.29123705696322   13.06416800415510    3.19371213860946
C          -5.05767000212327   12.43563719179861    2.61528867076095
F          -5.06648573705968   12.31375043427722    1.28094700304224
F          -3.96645823631941   13.18029743857784    2.89243973643833
F          -4.76956866878023   11.21358506519062    3.11456421203094
C          -6.12535216100416   13.78100362195379    4.35220802874224
C          -7.17030706089014   14.51603293181888    4.91557343679655
C          -8.36896581114998   14.66607028891377    4.25127176770755
O          -9.40794293017715   15.37445504084869    4.73637002183042
C          -9.27543089414741   16.05308286909582    5.96471268230861
C         -10.81184464846369   14.89509680307535    2.04033083554658
C         -11.04071032997209   16.12120748285429    2.60941876977555
C         -12.23776033632150   16.82186031365772    2.47229320953129
C         -12.48564687791509   18.03256625100342    3.08845263783456
C         -13.67594242897174   18.78686871275675    3.05882939275979
C         -13.63572922067094   19.93295891855993    3.80377086484466
C         -12.40586691502512   20.14811912638957    4.45159601221974
S         -11.29639470101212   18.84251841872783    4.09275577471952
C         -12.03416928458403   21.20884122388750    5.26324693476868
C         -12.81400369603155   22.30841176334601    5.67362420787515
C         -12.14449071370736   23.19076039331511    6.46961109108785
C         -10.79526656193828   22.84801077510739    6.72630698794790
S         -10.42163325378653   21.32980890888025    5.92445548411949
C          -9.90827455614139   23.59258259549074    7.46425360298577
C          -8.54530297838500   23.34025937351069    7.71392908384102
C          -7.73855525706767   22.27253748427673    7.31071417905641
C          -6.42222284130858   22.49690255985161    7.78248835599976
C          -5.26449026703041   21.76439614796651    7.64244123933210
C          -4.09225249742790   22.27545701584663    8.22292031548417
C          -2.79277456201038   21.79445133842379    8.24859531948150
C          -1.96859282320862   22.71289937926320    8.97575293715652
C          -2.76412679005877   23.76006489015085    9.39972315642271
C          -4.10395272139701   23.53362944321590    8.95206331380293
C          -5.25057724449307   24.26355750261735    9.09781742512005
C          -6.43177883880018   23.75535872773354    8.51036842261248
C          -7.71705288963643   24.24968635297931    8.46439022680081
C          -0.55375908496182   22.58856667063495    9.23013413854063
C           0.21908749884316   21.58162428736078    8.83137642937269
H           1.32798760927189    1.24005461911627   -2.46505353454497
H           0.17732407672112   -2.97012256815932   -0.00556991955714
H           3.62859712710636   -0.15400198540658   -3.25780558044314
H          -3.49335475886854    0.76697785406000    1.45944358880780
H          -4.17160003299307    2.73789707819773    2.48573508746396
H          -4.29167720982431    4.96086446198613   -1.94803523833746
H          -3.32285169448360    2.71984492105212   -1.71484766380616
H          -7.44151362621990    4.74144655385629    1.96654739463479
H          -7.26936332326390    5.52512611715909    3.53592150376838
H          -6.45616151550453    2.66030576839642    2.85478166071199
H          -7.82277484645653    3.17331667320272    3.83458790394501
H          -6.18619264844405    3.42951871057531    4.42598291238248
H          -4.28754406412359    4.63318963799995    4.11789762011720
H          -5.05793671259398    6.19973463845830    4.37959744630518
H          -2.67319153929713    5.70089160689385    2.53075498543132
H          -2.59095246068905    6.41500094195906    4.14300591989346
H          -3.42054390695696    7.26878349782590    2.84114651450033
H          -6.46588224120671    7.95799105939578    3.12240442933122
H          -6.20370242209736    9.46907662393022   -0.87549893195710
H          -5.26905545612742    7.33542389279031   -1.65393954536200
H          -6.91632537585304   10.22437268507473    2.73492373311375
H          -7.66258016526620   10.93560165460540   -0.14069790462272
H          -5.16645878343797   13.78183187821003    4.84729016528017
H          -7.00201531431883   14.99674251289384    5.86405189175656
H         -10.22361474807742   16.56736155007726    6.11259359278233
H          -8.46850958951363   16.79084543990838    5.93052668364122
H          -9.10430202157512   15.35720305326505    6.79112731005147
H         -11.57582505710028   14.51300010849842    1.37170035204246
H         -10.27083102824771   16.58797383507274    3.20194707112444
H         -13.03537749756412   16.39512924504869    1.87811754227280
H         -14.53149862452294   18.46160527877375    2.49335855307699
H         -14.45566464305605   20.62273501931603    3.89464166342168
H         -13.84125978681637   22.42068949070852    5.37658121712135
H         -12.57797946567482   24.08766249640055    6.87663651946113
H         -10.30760447037392   24.50518050705433    7.89109825106335
H          -8.04270620115573   21.41869700832775    6.73702088285314
H          -5.24923308716728   20.82973849588080    7.09995549295622
H          -2.45373597762336   20.88159226708806    7.79436576724214
H          -2.44096607223331   24.61153084419773    9.97055470070705
H          -5.26767956856825   25.20097050176061    9.63628712941775
H          -8.06619373270094   25.16739198110846    8.90381749644402
H          -0.12005506852063   23.40339722649563    9.79698046074479
H          -0.16649168575213   20.74932435586944    8.26801698677776
H           1.27076345090893   21.55473697870896    9.05822632215087
