113
 SCF done       -195.275960275758          0.000276254610
C          -8.30930561477803   -2.77531336164696   -7.43517071318591
C          -8.38392516652276   -4.06089274489468   -6.96046705851425
C          -8.08756253601565   -5.20710500000577   -7.72416890087136
N          -7.85776587873339   -6.17478274536411   -8.29806048000104
C          -8.75428930092806   -4.39497866393995   -5.64270263216376
N          -9.04513204649713   -4.71222489987651   -4.57812119910706
C          -7.91173121286076   -2.38453337211476   -8.78515705449199
C          -7.92051188361199   -0.96830569496440   -8.87762166548046
C          -7.58960584000247   -0.29844505951364  -10.03039867356616
C          -7.23748322523360   -1.06101600457105  -11.14940555359379
C          -7.23563410998991   -2.47240344974652  -11.04971570902194
C          -7.56672533500303   -3.15023787271297   -9.88180687609879
S          -6.77694959638764   -3.21848914264232  -12.54942100435898
C          -6.59548810471714   -1.64599478213876  -13.28093126164733
C          -6.86393172543850   -0.61386875620568  -12.44615684063616
Br         -6.06893790999696   -1.51550218872279  -15.07638151119551
C          -8.33741645842600   -0.41246134218842   -7.58368591183686
O          -8.45597089741497    0.77064778194046   -7.28133578480192
C          -8.59156492440178   -1.56042485520057   -6.70885995281966
C          -9.05720219842260   -1.39937321102225   -5.42599712913070
N          -9.27455671279641   -0.17566465893656   -4.93067417740673
C          -9.81750364547876    0.12460569738675   -3.72268143706243
S         -10.39766368870802   -1.11926419702903   -2.65439735085421
C         -10.97532090566488    0.10790389004127   -1.57471682239913
N         -11.60251609565824   -0.30135982249185   -0.39151168663856
O         -12.00772388523169    0.56498174936831    0.36139837519655
O         -11.69601970189434   -1.50211616699359   -0.20627291413289
C         -10.74134543821930    1.38245400991327   -2.01793828218144
C         -10.05528194612484    1.41731259270176   -3.24575162729833
C          -9.67623673510248    2.65322251294922   -3.89131247874023
C          -8.57915817815822    2.84607802785997   -4.64221225747745
C          -8.20416221865557    4.09669486560786   -5.26493666014804
C          -6.85812353943488    4.30256314337247   -5.60326922175059
C          -6.47058383838025    5.49834819490503   -6.15355603401379
C          -7.41755521045219    6.50647706900276   -6.41260920202825
C          -8.75840759685216    6.29986100359807   -6.11308814819397
C          -9.13743860187278    5.10497808273064   -5.53797014959246
C          -6.73582071812573    7.64671735707312   -6.97380512727095
C          -5.35914169957535    7.35461445163818   -7.05206850016472
C          -5.08641138752212    5.95443805400436   -6.55105742384347
C          -4.13321386232445    5.96742353290431   -5.34151149438043
C          -4.64221589344017    6.83554229149084   -4.19700124393062
C          -4.49931712677593    5.06453934329732   -7.66247990295108
C          -5.40403880219652    4.97086031278401   -8.88521892527949
C          -4.46792495959669    8.28397337602902   -7.51675609304611
C          -4.93021324893706    9.55235803487832   -7.92886598602391
C          -6.31638047440673    9.81190092396168   -7.87140979852454
C          -7.21290063334855    8.88300934868500   -7.39713817149600
C          -4.06921261175661   10.59066176003730   -8.38444478799440
C          -2.69509238752713   10.57623077718449   -8.37887771912131
C          -1.90160837203029   11.64063172423334   -8.80303146304772
C          -0.47341536069064   11.69819902746727   -8.77103204702919
C           0.44358593139847   10.73723723453456   -8.34768082484391
C           1.79219278037058   11.02071474256210   -8.40694750349922
C           2.23897726973578   12.25049107281630   -8.88599319732263
C           1.34670250480560   13.21826777380144   -9.31142910843449
C          -0.01775319900551   12.95980550206600   -9.25799561532131
C          -1.16238722062786   13.75314973144437   -9.62102501933333
C          -2.37291818344249   12.92187801992049   -9.34650154522508
O          -3.52205977349173   13.28027873778111   -9.54952162555995
C          -1.33079447682640   15.01213873438139  -10.11828063734441
C          -0.36485705868673   15.98629423944976  -10.43070068896357
C          -0.70014854371264   17.20846896693584  -10.93936761844792
C           0.21484930447035   18.22337963235309  -11.26474863281883
C          -0.08163702343787   19.48074892230535  -11.79093456462874
C           1.02240601320164   20.27518202954959  -12.00929237593638
C           2.23033944471450   19.66163905943039  -11.65749711069143
S           1.93848373409576   18.05148985157076  -11.04485540603091
C           3.51710331877872   20.18879142064566  -11.74766037720379
C           3.88441854173960   21.46840356861867  -12.21920033844210
C           5.22128741916575   21.71316220373576  -12.18811364900014
C           6.00279890020940   20.62886309634155  -11.68388332977903
S           4.92850240286503   19.28768484562943  -11.25734444240366
C           7.33713606622491   20.56856457957446  -11.53001796185835
H          -7.60449431222439    0.77951494927298  -10.07023848459463
H          -7.55138749292676   -4.22692225544204   -9.85681683088549
H          -6.80291261575910    0.42037589651372  -12.73178913027170
H          -9.26725796778415   -2.23997507983804   -4.77740120936631
H          -9.07438229490942    0.59833251586723   -5.58856389294014
H         -11.03805479564863    2.25308147387151   -1.46133683271160
H         -10.32568143526198    3.48831301898390   -3.66846547391585
H          -7.85506416851222    2.04900438190266   -4.75210621257448
H          -6.13656507461880    3.52243111196465   -5.40610130153883
H          -9.49257415508683    7.06308390615723   -6.32348091856185
H         -10.17926942076002    4.93504052890758   -5.31271377278106
H          -3.15799971121045    6.33446916581892   -5.66838900079739
H          -4.00164352718002    4.94243104580977   -4.98816624601441
H          -3.94042466897795    6.80935466317527   -3.36659599664853
H          -4.75603446645727    7.86834156991119   -4.51883109605177
H          -5.60707744228206    6.47845258029056   -3.84358219933156
H          -4.33310287146558    4.06368111955937   -7.25798149398514
H          -3.52965901034167    5.47024270634688   -7.95904301296827
H          -6.36308416181967    4.53122066617890   -8.62004844223691
H          -4.93824400425788    4.34991984773131   -9.64727812289573
H          -5.58279171373360    5.95739962320822   -9.30730400944508
H          -3.41596964622141    8.04914577648070   -7.57127736992695
H          -6.66818110702644   10.77921346062190   -8.19917531230165
H          -8.26758639665896    9.11010957540604   -7.35059222024924
H          -4.55069974101638   11.49041480574480   -8.74086420408895
H          -2.17237106326650    9.70405873422767   -8.00534451570385
H           0.10473863690919    9.78116327645848   -7.97751139672819
H           2.51210225904619   10.28434374587955   -8.08094857955146
H           3.29955395591387   12.45033328561549   -8.92557715537932
H           1.72578932665375   14.15779085995080   -9.67932411604589
H          -2.36684269082027   15.29097232619963  -10.28844783004408
H           0.68075851250053   15.77518081827408  -10.26295125290904
H          -1.74380371260262   17.43745070910958  -11.11592844055104
H          -1.09194376059500   19.78499338826602  -12.00108430803355
H           0.97538611767193   21.27145719244961  -12.40963571950978
H           3.15048355163468   22.17276411088343  -12.56812979358754
H           5.68607412976899   22.62909742118650  -12.50581320251336
H           7.95747038523533   21.40464124462551  -11.79979047758668
H           7.82191784419407   19.69422092265795  -11.13675418002874
