116
 SCF done       -209.352890838422          0.000420325845
C          -4.39787728429243    2.45934719163290    9.10541035555371
C          -4.67592593768735    1.12763431095843    8.93929173276336
C          -4.38123964136620    0.13389931323455    9.89621454201421
N          -4.17049594748026   -0.71658267307024   10.63784420924202
C          -5.26396779616847    0.55370454438597    7.79214182166576
N          -5.72251392396614    0.00621123825872    6.89269336979847
C          -3.71133516629453    3.04448982378464   10.24901571699328
C          -3.49659300580777    4.41996609969055    9.99297510512343
C          -2.86388624496093    5.25146257679861   10.88483805328204
C          -2.41587342939347    4.69715108288003   12.08785277439527
C          -2.63698682474726    3.32129436480623   12.33768914146788
C          -3.28043418137540    2.48207731000064   11.43713560087884
S          -2.00682051910258    2.84422677806225   13.88529575486506
C          -1.45914189607639    4.47521665796885   14.16940379824772
C          -1.73473563847173    5.33515658026724   13.16024010847720
Br         -0.57791041266673    4.88939240417051   15.77225198654367
C          -4.04685469011965    4.77410736925048    8.66896619651462
O          -4.05283476860501    5.88109610191039    8.17785464192276
C          -4.65221380140249    3.52088584873214    8.14335915785868
C          -5.47955472943102    3.42127581333609    7.06734127577844
C          -5.69385799195682    4.37969644386509    6.01999871311611
C          -6.95867761073695    4.41753264571002    5.40239320339336
C          -7.19516453412931    5.32432833692726    4.40267829756248
C          -6.17079245925124    6.18709361126646    3.96605602876158
C          -4.90402429231071    6.12029604186044    4.53185936067216
C          -4.67485916380841    5.22342790560751    5.55305643704154
C          -6.68988474490767    7.01652972257842    2.90589990892615
C          -8.03442440725928    6.66676649644373    2.67621362439401
C          -8.46558296448127    5.56960962247405    3.62230661605382
C          -8.91217089174613    4.30826051397543    2.86023270165615
C          -7.83829869083975    3.77268636609703    1.92095703452581
C          -9.60221591312995    6.04525363663941    4.54748274609518
C          -9.23798051653428    7.29534268957031    5.33951642229124
C          -8.76626421282867    7.29328646457653    1.70030309338947
C          -8.16749978307953    8.30102466893702    0.92142721177742
C          -6.82853986948930    8.64958714185713    1.18116226427401
C          -6.08793381957599    8.01930549899692    2.15556990109219
C          -8.84424726983545    8.98964178061084   -0.13785301220337
C         -10.09140318622112    8.73078783081886   -0.61807415456316
C         -10.72806163243352    9.38274425369847   -1.69388112197766
C         -10.29916509677743   10.43210084528979   -2.47347378423560
C         -11.01723312459158   10.95447376700425   -3.57942377095957
C         -10.39855991512596   11.98012203953524   -4.22951967356543
C          -9.15833462091727   12.34323469866127   -3.66538527682441
S          -8.80389545921568   11.33270639913231   -2.28677305664545
C          -8.27986971087800   13.33037113950922   -4.08288076213121
C          -8.37856312829800   14.16142061135534   -5.21598041273778
C          -7.32616551227514   15.01852632514981   -5.37298497339759
C          -6.34800662181917   14.91786371953118   -4.36143753001234
S          -6.81212652316107   13.68679855578390   -3.20344087726620
C          -5.16751308680969   15.60775151076256   -4.17164430627126
C          -4.57001756750837   16.55590747191196   -4.99707767425711
S          -5.14181817510116   17.08494744781725   -6.57244342413076
C          -3.36993097647389   17.21626857648786   -4.72657486270188
S          -2.23708241190714   17.20798869272780   -3.42097564055986
C          -1.28909783041475   18.36900454107425   -4.34006054658549
N          -1.75176157267327   18.72345098543516   -5.47524858535137
C          -2.92754780273391   18.09601846333769   -5.73610735581921
C          -3.77442553587173   18.14290976701661   -6.84853883073689
C          -3.52974535435342   18.82458819986812   -8.03916461574999
C          -4.34155246853833   18.81251228876624   -9.14343686132074
C          -4.05151624834407   19.44508661739457  -10.36120182566139
C          -2.85224595507876   19.89846761295725  -10.85762621240219
C          -1.47527653021184   19.64021325165343  -10.51953455979262
C          -0.95328184883775   18.50512682480698   -9.94394363560289
C           0.42192027943725   18.28912812915737   -9.73367488667173
N           1.52853213520612   18.06456195681505   -9.52236230011254
C          -1.71287844535513   17.38034873283362   -9.57235571196631
N          -2.26784094667299   16.41570907087695   -9.28788319390395
C          -0.66774604613896   20.68507219054635  -11.14932910999309
C          -1.49171972292928   21.42284716617649  -12.03433086927653
C          -2.87512132789615   20.91042944451949  -11.94153150375109
O          -3.83837697966057   21.26662675212336  -12.58532790147541
C          -1.00952217884901   22.44750199890974  -12.81056623086958
C           0.34802924192440   22.76862117990089  -12.69738857237354
C           1.15690470124619   22.03991459042426  -11.79496728986452
C           0.67092885423350   20.99592262136327  -11.01605944248968
S           2.79795084294269   22.61218446334357  -11.80167773854841
C           2.38169592853327   23.80102780591600  -13.00746074854654
C           1.08165424850552   23.77576737666523  -13.38353698724872
Br          3.70314694195899   24.96633939239599  -13.65230488984066
H          -2.71641795339172    6.29586138232008   10.65852960904354
H          -3.43005464718777    1.44268092415887   11.67669872434356
H          -1.46985228388737    6.37665474263443   13.16978146200703
H          -6.08922427745413    2.52809949085907    6.98951969277523
H          -7.73498596158587    3.74825751257995    5.74490205590401
H          -4.10855599016756    6.75764217291145    4.17752629630652
H          -3.68797274660527    5.14321104096797    5.97702880900689
H          -9.81005485851750    4.54667538776047    2.28617726457899
H          -9.17623907607297    3.53631703834483    3.58574983708408
H          -7.56963604979383    4.51947399349389    1.17682492373697
H          -8.20216774190947    2.88759740873251    1.40468238657346
H          -6.94228249611937    3.50226830760159    2.47508557226294
H          -9.84998755155134    5.23711295048791    5.23881323904611
H         -10.48656585623877    6.24665096332815    3.93922510840347
H          -8.36832917440553    7.11479004954088    5.96751673135595
H         -10.06823975986181    7.58725953328093    5.97838228677895
H          -9.01153314667481    8.12281172253488    4.67063499303617
H          -9.79605165793779    7.01850045261145    1.53204853338893
H          -6.37551155428655    9.43005794692866    0.58696231158454
H          -5.06037748405896    8.29841230495788    2.33292598664063
H          -8.26348758869320    9.77218781631989   -0.60444911056897
H         -10.66805228054940    7.93331371897651   -0.16929746764721
H         -11.70157154769580    8.99383170391068   -1.96829573275273
H         -11.97067356034407   10.54632937244187   -3.86580738318794
H         -10.80357573269698   12.48398244228774   -5.08836960919422
H          -9.21182352643599   14.10391763781364   -5.89296359843445
H          -7.23868383369235   15.71829272974197   -6.18341959241160
H          -4.60860105542382   15.37847043660257   -3.27220933057632
H          -0.37004854083064   18.74138121878393   -3.93254004394490
H          -2.61975795759084   19.41058960325794   -8.04069581794000
H          -5.30485489101951   18.32556312621953   -9.05793347917786
H          -4.89983817336552   19.67275227830030  -11.00012362248442
H          -1.65691502772619   22.98515883015596  -13.48536369836146
H           1.32483710024361   20.47278703209254  -10.33826967918178
H           0.65496222756910   24.43843909537649  -14.11418184670351
