104
 SCF done       -185.620149242941          0.000464577939
C          -1.44743811885037   -0.99044382694546    1.42433229988362
C          -1.89486314212785   -2.28229720326945    1.22144473114314
C          -1.07415462907800   -3.42303131968068    1.28477578889014
N          -0.47073176143523   -4.40121845801254    1.32384636725591
C          -3.21019000475501   -2.67060667239813    0.92479338744113
N          -4.24787255767519   -3.10443982691467    0.67588999582740
C          -0.05929011865440   -0.62751082332912    1.71402288515027
C           0.01712089696611    0.77867427498700    1.85474294177687
C           1.19046815803549    1.43339510763266    2.12880624637641
C           2.35038125551900    0.66176015838839    2.27397002393051
C           2.26411230810960   -0.74052056164981    2.13267148152746
C           1.07382241539443   -1.40370849938328    1.85279893963582
S           3.81280825765320   -1.50168251736726    2.35107777898312
C           4.54239670052915    0.05746831200410    2.62716808766061
C           3.67545032356972    1.09421971512279    2.55847370265342
Br          6.38343437616927    0.16910768224853    2.97734230117713
C          -1.33411061406116    1.35689313575631    1.66216963940207
O          -1.61881690731222    2.53956629744001    1.71811146267022
C          -2.21820775466396    0.21453388844185    1.39733681633836
C          -3.58651673156730    0.31066050769165    1.17589717712194
C          -4.32272669301166    1.47915270305811    1.18286480187684
C          -5.69801746398541    1.49542072361604    0.97634353709546
C          -6.55381037551616    2.60974369839905    0.99664168760664
C          -7.87499583529649    2.30671962695043    0.78174466871792
C          -8.10989959878140    0.94034576270629    0.57696374407029
S          -6.61197067338502    0.04151666066560    0.66147175138787
C          -9.31264780628806    0.28032804930817    0.34151063775134
C         -10.61615765754875    0.79973744034031    0.28536144033157
C         -11.57499244111041   -0.14938267286548    0.04979894361244
C         -11.07681114238261   -1.45899054545225   -0.10017416007626
S          -9.33259481331779   -1.44038841328333    0.07607155181461
C         -11.83938000240557   -2.58792403669857   -0.33785464734575
C         -11.40308100407740   -3.89551831120070   -0.52978174763766
S         -12.61681467583713   -5.16104374615164   -0.76662067033676
C         -10.10442492898530   -4.41976179708862   -0.59035205694567
C         -10.07720083191041   -5.78178510765716   -0.80892958910116
C          -9.09502350487025   -6.85131700396383   -0.99845370475073
C          -7.75289344527431   -6.77278325990400   -0.85286230342225
C          -6.84755357671029   -7.93320440962977   -1.15475638666892
N          -7.06064556306157   -8.42423666796477   -2.51819621923710
C          -7.08584371121946   -5.49714967265662   -0.40323062128796
N          -5.71029846378097   -5.70163002451628    0.01243730592855
C         -11.38173779255494   -6.33044845563544   -0.94014569844568
C         -11.26944242202622   -7.68996674381392   -1.22434127367479
S         -12.31300730845219   -9.02207237241648   -1.51668738203408
C          -9.89968817992596   -8.03384768181972   -1.30132802940061
C          -9.71993614117908   -9.37455652909201   -1.61166024129186
C         -10.91866666162279  -10.06178293575953   -1.76430705273326
C         -11.06724912860045  -11.42684077240424   -2.09278462960254
C         -12.25914161278430  -12.07248244164014   -2.18550627142902
C         -12.41004678802060  -13.43222703587619   -2.53191538941106
O         -11.34872384794594  -14.21837758749708   -2.85741843750412
C         -11.80962130499229  -15.46210665553700   -3.14901614796133
C         -13.19316918013231  -15.47939652925956   -3.00380893164680
C         -13.58001285046651  -14.18575096060413   -2.61261391526044
O         -14.83061618078111  -13.74610103849649   -2.36060404294965
O         -14.07173019086399  -16.50466296476952   -3.18956085842816
C         -10.93069921653364  -16.50401860537644   -3.54611065785076
C          -9.59378294150069  -16.34794812091424   -3.70389047457388
C          -8.65927995090526  -17.34687910936243   -4.11694885309291
C          -8.93282326544008  -18.66230044143757   -4.25523421512054
C          -8.05167639774932  -19.72875815694119   -4.66743487312098
C          -6.75510299625618  -19.55454552295885   -5.20951231727249
O          -6.30504803584680  -18.28079104368791   -5.36911730985528
C          -5.04848164004109  -18.06370912560585   -5.96485429486841
C          -6.00635234093188  -20.66988821181595   -5.56740553079440
C          -6.50514499299511  -21.95048546442172   -5.40450409032686
C          -7.77345922400598  -22.13864457299128   -4.88509843040230
C          -8.52538264826702  -21.03883622161022   -4.53033088533885
H           1.21675861094510    2.50714156092290    2.23020960388839
H           1.06236502199525   -2.47618908850922    1.75398373473785
H           3.95539472896040    2.12198411379762    2.70176073202425
H          -4.13084279442309   -0.60828876724000    0.99196949106232
H          -3.82572255142842    2.42024735474208    1.36613659466406
H          -6.17935463892285    3.60238708492809    1.17274687260143
H          -8.66713882901846    3.03401890457033    0.76611261755523
H         -10.82153286214830    1.84571920171000    0.42426063401353
H         -12.62769467406435    0.06120144513267   -0.02165807538259
H         -12.90985951558609   -2.42932443531675   -0.37913315723563
H          -9.24170180997096   -3.78980175447287   -0.50354642845348
H          -7.07087166148566   -8.75942290576056   -0.46940593871662
H          -5.81561257330690   -7.60236857308929   -0.97613279595042
H          -6.93662777219648   -7.66135812072232   -3.17551155900885
H          -6.35893283126997   -9.12542571228264   -2.73355510245952
H          -7.70700205765815   -5.03591811691609    0.38094962415849
H          -7.07214675885212   -4.80525233515257   -1.25440410106036
H          -5.67889019716950   -6.15913969207025    0.91779008350054
H          -5.23781209043742   -4.80704893256774    0.11101980858339
H          -8.76871224962679   -9.84448756594982   -1.76605835600264
H         -10.15540432043026  -11.97734765737372   -2.27853411990974
H         -13.18434285149079  -11.55025062367433   -1.98638452661988
H         -15.44014802971875  -14.48324029832068   -2.49657249159953
H         -13.59152202880397  -17.29421846567646   -3.45956859743429
H         -11.39931868519508  -17.45918329180480   -3.74092003086856
H          -9.19044745323304  -15.36164008598381   -3.51918802782849
H          -7.65960509090395  -16.99495020591685   -4.31195184665070
H          -9.92887575420311  -19.00653499918572   -4.00389709454518
H          -4.93183688362189  -16.98176311130679   -6.01204937576615
H          -5.00581705214115  -18.47425680303260   -6.97848818872804
H          -4.23728576859621  -18.48652423496976   -5.36368766963138
H          -5.01708979086705  -20.55007061584471   -5.97968780018673
H          -5.89856241562909  -22.79688318607295   -5.68921746529637
H          -8.17158114987930  -23.13387680738055   -4.75972060749588
H          -9.51607011766663  -21.18462634450938   -4.12352622324054
