117
 SCF done       -206.661283235271          0.000623693117
C         -13.94476497699501   -1.36904505117367   -7.98525480175695
C         -12.73146808997643   -0.98365432756417   -8.51014072200099
C         -11.86137483686868   -1.85410130518598   -9.18882425220794
N         -11.10793345699005   -2.53788019146748   -9.72424690904946
C         -12.18565279972046    0.30505527659364   -8.35399541734654
N         -11.68076524492210    1.33200773075813   -8.25002882855714
C         -14.51926692927198   -2.70932873438425   -8.06290219571466
C         -15.66649673159526   -2.74932672192942   -7.23523829768864
C         -16.44852868116240   -3.86924558467585   -7.10906483465482
C         -16.07278254907714   -5.00992449366100   -7.83036163796463
C         -14.92463392422344   -4.95979430897814   -8.65366488003827
C         -14.13743852479878   -3.82016181486078   -8.78719344832495
S         -14.63547863721970   -6.48207819055131   -9.44343206031814
C         -16.04212829130933   -7.15605334723782   -8.66303487198557
C         -16.69670199886978   -6.28793594776259   -7.85666883595045
Br        -16.51295829814501   -8.94442031754377   -8.98776137510434
C         -15.84717253132606   -1.42999792305911   -6.58922719928651
O         -16.72808741797831   -1.12543676432101   -5.80863747335242
C         -14.79158906192464   -0.56871588618425   -7.14779821119230
C         -14.80273296762852    0.81700399518550   -7.06585032885830
C         -15.38158776107587    1.58892534023901   -6.06324060157028
C         -15.52825978608140    1.24060268177047   -4.72915502635167
C         -16.08759931328418    2.06160501851759   -3.72025271003185
C         -15.93723565364000    1.57450104986228   -2.45421779439868
C         -15.22698483602137    0.35684627433460   -2.40528989462252
S         -14.83295306978419   -0.18437763479444   -4.01642955567425
C         -14.79649872731472   -0.36263634896704   -1.30081984810595
C         -15.03595105729146   -0.11854271442113    0.07219589347695
C         -14.39350477718384   -0.99380572340709    0.89372037936284
C         -13.61601049197883   -1.96828794913548    0.21082364473466
S         -13.77591568801504   -1.75495109177169   -1.51141712985826
C         -12.73853353894395   -2.85374229127659    0.79689607046070
C         -11.95502269849617   -3.79320841955476    0.10788043638791
N         -10.76682883783482   -4.29423449985672    0.60967283540735
C         -10.12101861010281   -3.87086300381653    1.82884675879485
C          -9.53058704825782   -2.46881571743065    1.70663712940869
C         -10.12550298526812   -5.15326905741929   -0.29642147918090
O          -9.08097064093037   -5.72628121734586   -0.05109279047959
C         -11.01823653045255   -5.20446034687033   -1.43112253487780
C         -12.14458167857948   -4.38813956279610   -1.14304998755796
C         -13.10527152978892   -4.59813343882510   -2.19473827624983
O         -14.27031675975206   -4.26373736573759   -2.31321386182958
N         -12.43645485299767   -5.41846675423350   -3.12740044348879
C         -13.11216559822944   -5.87784402188384   -4.31742845398535
C         -13.50983197324199   -4.70751432558487   -5.20923878599332
C         -11.20504929175917   -5.79368059638495   -2.67678495350741
C         -10.26316564664276   -6.65032749371940   -3.38492502230202
C          -9.77502814555449   -6.28180485874313   -4.65965341433307
O         -10.34076741248255   -5.14983737657567   -5.14565942740413
C         -10.03481409324288   -4.56649509566839   -6.40670782656816
C         -10.67936239691281   -5.29122736574648   -7.58092343898367
C          -8.75409983307283   -7.03888680834301   -5.24825550900512
O          -8.29190331084331   -6.68767282970885   -6.49496184684147
C          -6.89110808687134   -6.52093871364802   -6.68352733232660
C          -6.24240251448523   -5.62319887256109   -5.63697130399971
C          -8.24738807723771   -8.17225886502301   -4.57439144823973
O          -7.31830009527679   -8.89506055915399   -5.25307158495265
C          -6.58455118545554   -9.90981166496331   -4.59430459601613
C          -5.54427499951923   -9.34891768673034   -3.62990196669334
C          -8.71357742950701   -8.49533995260881   -3.30909206432206
C          -9.71682368082400   -7.75005889326563   -2.71178652681717
C         -10.19965833768356   -8.10163505192051   -1.38001493774540
C         -11.50017673673938   -8.15109371463396   -1.09003069472544
N         -12.07713345003180   -8.27860134712665    0.17446330753433
C         -11.41477881707974   -8.00704785262463    1.34391934322311
S         -12.00327033349721   -6.72889478651578    2.36494109416695
C         -10.67565209317635   -6.99551827110647    3.44707332780664
N         -10.57411695381364   -6.16668862617666    4.56289475295456
O          -9.68541449374395   -6.38471378391563    5.36522954256471
O         -11.38590401095757   -5.25368257017107    4.64237803592921
C          -9.84619094188845   -8.00835468275677    3.04236410268162
C         -10.26358554541043   -8.60896941269281    1.84177190567154
C          -9.65523339179315   -9.77837870249916    1.23045835038682
C          -8.45912175086493  -10.26394939865190    1.54023185181022
H         -17.31724834786311   -3.87236660853606   -6.47013740572255
H         -13.27798532752314   -3.82617873476467   -9.43647091049190
H         -17.58283010250145   -6.53541408187953   -7.30117716513138
H         -14.36452417597412    1.36368061604692   -7.89351363077888
H         -15.63606583603804    2.61212078914707   -6.31054033793194
H         -16.58239501121681    2.98600756960664   -3.96091212553429
H         -16.29164755808772    2.06761381626527   -1.56688551184142
H         -15.66361254180711    0.68602983885787    0.41025493022666
H         -14.44151923537110   -0.96994545548972    1.96821706979583
H         -12.59986553522590   -2.77156707674423    1.86654469767644
H          -9.31622200737631   -4.59110102492684    2.00500846212591
H         -10.83108673956274   -3.91676981002319    2.66010874645299
H          -8.79237179318402   -2.44369389003977    0.90857306367751
H          -9.04680749882823   -2.19380483083998    2.63947599542403
H         -10.30683875023335   -1.73952401790458    1.48529207796239
H         -14.01742365219800   -6.41580271463420   -4.00971075288049
H         -12.45010732976597   -6.56662832148534   -4.84354591583301
H         -12.63896977096137   -4.10464031791891   -5.44565562731565
H         -14.23995299708153   -4.08366802462181   -4.70099779214307
H         -13.94837534283063   -5.08293342506240   -6.12877551681980
H          -8.95790095985861   -4.48035018224677   -6.55358416440318
H         -10.45101034167660   -3.55679060461002   -6.32047378252671
H         -10.54312585822716   -4.69396297990735   -8.47849558513151
H         -11.74426640355359   -5.42251584237215   -7.40469320592447
H         -10.21759443356966   -6.26308077096627   -7.72621006919892
H          -6.82217484355191   -6.06484525200434   -7.67503219336974
H          -6.39183146406632   -7.49443693911568   -6.70712226224310
H          -6.72482794301423   -4.64808851154936   -5.61072746452746
H          -5.19252344598588   -5.48558305527481   -5.88051115707900
H          -6.31767739166754   -6.06978557826852   -4.64732981091440
H          -6.08870105686511  -10.44629290564079   -5.40800287184080
H          -7.25906380857906  -10.60766230079550   -4.08469950465844
H          -4.85808396367825   -8.69605036160647   -4.16405595019528
H          -4.97974156469234  -10.16462209807339   -3.18723759379422
H          -6.01774561718003   -8.77579567113648   -2.83626031624583
H          -8.32830765964489   -9.34828146180894   -2.77598443787290
H          -9.44311298907215   -8.23327124823006   -0.62309764808859
H         -12.23993569805066   -8.08194426796434   -1.87529519615878
H         -13.05354284748139   -8.01327941340556    0.19022274290525
H          -8.98466950773500   -8.30398805509424    3.61176187735918
H         -10.26593409902571  -10.26883768124059    0.48446093933097
H          -7.81481850086718   -9.79489471410093    2.26321850673559
H          -8.07804659833983  -11.15130353881233    1.06586768499054
