112
 SCF done       -207.666381936051          0.000440548089
C          -6.31439606682533   -2.50640776018840   -2.35674273252553
C          -6.89256530145684   -2.23560863729503   -1.14215105604717
C          -7.28793356718414   -3.22182407297160   -0.21498677953532
N          -7.63915351654536   -3.97643462736167    0.57579585935387
C          -7.16340681605414   -0.94405794331099   -0.64559437435065
N          -7.40757806131312    0.07372869272932   -0.17260548096482
C          -5.97440424964968   -3.82988771103034   -2.86172281483177
C          -5.33103898795111   -3.69131227431962   -4.11650926387650
C          -4.88724532641285   -4.76780601597007   -4.84506803202944
C          -5.08098155970371   -6.04435466721437   -4.30717724082646
C          -5.72732057359615   -6.17415967066271   -3.05415680444507
C          -6.18007948698730   -5.08575006034106   -2.31944036863346
S          -5.87326728687349   -7.83919245614793   -2.58007126024051
C          -5.07357265704799   -8.33168032000691   -4.04930686322971
C          -4.71491233150858   -7.30403540692672   -4.85511683325416
Br         -4.79182901435245  -10.15504871071551   -4.38164985912232
C          -5.25207867896590   -2.26458798338182   -4.47828957260322
O          -4.89644273887305   -1.80835751488367   -5.53993694902350
C          -5.86266484288985   -1.53151319352686   -3.32984615427825
C          -6.09436351029744   -0.19014599868584   -3.31599355002437
C          -5.43514070496371    0.73488100297431   -4.16642360633812
O          -6.04137175082671    1.91837989151835   -4.46589637750772
C          -4.17479365019273    0.74232411470052   -4.73070539759516
C          -2.90117092535552    0.00912003313438   -4.81105890199311
O          -2.54035046522110   -1.01377942120048   -4.29284694846545
N          -2.11159094241303    0.82453548755490   -5.61383933187735
C          -2.69924329492361    2.02402555100342   -6.01929930116991
O          -2.16573355166546    2.85963950404733   -6.69737640335537
C          -4.03591930778274    1.97081025325786   -5.41587324263207
C          -5.21673475835742    2.66923443266626   -5.23852845920874
C          -5.63926761144970    3.93759588564891   -5.73478081023515
C          -6.83866944642436    4.47022910830584   -5.43433206914660
C          -7.30255303969810    5.76467984977324   -5.89971899621753
C          -7.80055421149819    6.66220529324744   -4.94198203164024
C          -8.13007508288812    7.96358809247412   -5.25121924359236
C          -7.99123899966348    8.43262278192902   -6.55513125485146
C          -7.56761073093488    7.55287674148070   -7.52131297386871
C          -7.24175659679660    6.21977313288813   -7.21842191921333
N          -6.96774511145413    5.53730423816230   -8.39178197698010
C          -6.76779097210124    4.12483026398305   -8.56820463629460
C          -7.02342382561746    6.36947976062894   -9.47985569467671
O          -6.87134595338169    6.02550485211766  -10.62635111041834
C          -7.31732477599710    7.77761901233429   -8.97846839786831
C          -6.06776301220722    8.66029883504817   -9.19677596614714
C          -4.98781855476478    8.24713603358959   -8.19166427064159
O          -4.49023534858360    7.15274156060243   -8.06264669732885
N          -4.70566120224854    9.33285823778544   -7.41391269999722
C          -3.76750656644832    9.30541956462492   -6.32446335991597
C          -5.46555673633102   10.43455549162799   -7.78046228179267
C          -5.47569510407464   11.69688709358837   -7.23370648022072
C          -6.34094893671883   12.66470887253604   -7.77557539228592
C          -7.16456741935021   12.31345296759989   -8.85373397436553
C          -7.14611753598026   11.03866443955339   -9.39492265081772
C          -6.29466870703298   10.09670460067754   -8.85822926791015
C          -6.32221062301208   13.97760902340083   -7.18602266691710
C          -7.06680761768023   15.05340206522629   -7.54755625520059
C          -7.01922016472056   16.34303726369460   -6.96887829671468
C          -6.22338741850661   16.82385790697245   -5.95911236995397
C          -6.25009396974687   18.15643268706595   -5.46763447311934
C          -5.36015659816210   18.41986186242155   -4.47097412371722
C          -4.57161159948341   17.30916364213112   -4.10521057822801
S          -5.00663140584339   15.91830576198365   -5.07597370516453
C          -3.58074830919632   17.21738844739847   -3.14834889036261
C          -3.07827067761418   18.20287952807064   -2.27509822230024
C          -2.08471049396353   17.75900718757826   -1.45312156294449
C          -1.74051148202225   16.39534378136943   -1.61824458216884
S          -2.74025170237691   15.70379991577286   -2.88358775010724
C          -0.76724825512171   15.73846932885737   -0.90336452068574
C          -0.33387040082644   14.40914875751208   -0.94236153649938
S           1.02035905665185   13.98847188879707    0.10367515225620
C           1.06893081530078   12.31891678892945   -0.37291949843379
C           0.06462504351648   12.08784774515136   -1.31074365942854
C          -0.70994298408708   13.24640814163386   -1.62367034262029
N          -1.63441651839180   12.83876060516851   -2.52525588558585
N          -1.50640879151241   11.53496616525710   -2.80890857721180
C          -0.50973511106026   11.06234849645014   -2.10591170580149
C           2.04527689875453   11.45357444914768    0.20191240737635
C           2.18795740803359   10.15509876842401   -0.07980206582298
H          -4.40025107753119   -4.62753102113319   -5.79702057184761
H          -6.67115031115605   -5.23741761050544   -1.37278345291250
H          -4.21364817370772   -7.42718329123202   -5.79771664765118
H          -6.81519903049014    0.23958601872427   -2.63302124193926
H          -1.16552480502980    0.57718443775852   -5.86752605662639
H          -4.92842539937013    4.45978455230970   -6.35794449757865
H          -7.47473859900086    3.95786997161452   -4.72260730800973
H          -7.88380748556031    6.31925872632944   -3.92120320367453
H          -8.48754238445090    8.62581609168043   -4.47805783015126
H          -8.22549109409892    9.45647866594568   -6.80431906997835
H          -7.46359587166736    3.56279487848965   -7.94527218882257
H          -5.74452697160948    3.83224542203101   -8.32893206971160
H          -6.95313337397142    3.90947363561695   -9.62156078544617
H          -8.16207549010148    8.21331604379955   -9.51666985851149
H          -5.71784127722727    8.51074402353124  -10.22294345014985
H          -3.33490883504304    8.30644937039944   -6.29168458405133
H          -4.27126510936066    9.51443080189231   -5.37873375860687
H          -2.97558399368141   10.04007500673930   -6.47912281179011
H          -4.83504879512000   11.95245295999051   -6.40397716177761
H          -7.82977668241774   13.04827250128433   -9.27758225154906
H          -7.78830101799459   10.79019930211463  -10.22675071902248
H          -5.62350489931516   14.08214235120600   -6.36931758838258
H          -7.77635806048571   14.95098129253174   -8.35747523659017
H          -7.70386868509274   17.07168437315704   -7.38612220751042
H          -6.93203074058331   18.88230410024151   -5.87502909654833
H          -5.25037078784561   19.37689763485834   -3.99294489681703
H          -3.45969011430665   19.20809735741643   -2.27673528903914
H          -1.58441627381444   18.37213602039861   -0.72427313725614
H          -0.23685096347361   16.35747313527767   -0.18910333680020
H          -2.35537955118068   13.37611224785433   -2.97620111045174
H          -0.24002163910743   10.02948922963811   -2.18522367797417
H           2.70576920177171   11.92444620674280    0.91872155324955
H           1.55367314622087    9.65208364133243   -0.78665882906044
H           2.95121945595046    9.56507048687359    0.39480833930963
