97
 SCF done       -186.379659512066          0.009331675782
C          -8.51768533827995   -4.28123615283804   -0.43302000715062
C          -9.88250855384901   -4.29141387661470   -0.57525776386119
C         -10.77824058852642   -4.58262442129441    0.47641734066663
N         -11.55044739756436   -4.83586106080783    1.28580903332993
C         -10.58657214862795   -4.07800462577734   -1.77844797432474
N         -11.22944188488217   -3.92428558473373   -2.71845216013372
C          -7.80911595193370   -4.55728733518672    0.81422868144713
C          -6.42824880383884   -4.67894309811853    0.53117683905934
C          -5.50388597984835   -5.00238960325225    1.49534852369836
C          -5.96178981241631   -5.17381843074359    2.80655667547204
C          -7.33132820683777   -4.97873618453326    3.08875668275595
C          -8.27170113754180   -4.68050843739192    2.10890308269580
S          -7.67281395611220   -5.19275141715198    4.78128553574127
C          -5.99658753192456   -5.57232193168225    5.07478285582959
C          -5.21788397556437   -5.52397488683197    3.96860366514496
Br         -5.44368833881777   -6.04114613200906    6.79845237261514
C          -6.19130257623818   -4.34682663008113   -0.88689675032586
O          -5.12147606362580   -4.36617497135185   -1.46702560935868
C          -7.51861796212164   -4.03356376028518   -1.45705547724625
C          -7.76781249225897   -3.62189693420960   -2.74003100738665
C          -6.85454520428019   -3.13711949108627   -3.71086812702486
S          -7.21544016669513   -3.42684727081627   -5.39686456152051
C          -5.73832874777331   -2.69765442245729   -5.87643619232619
C          -5.00629796561004   -2.22167736410297   -4.83160397580976
C          -3.70017575853373   -1.51246001828328   -4.96328271105034
C          -5.65363786903656   -2.43487286455571   -3.58276143376988
C          -5.17652787271199   -1.96071500669119   -2.31660394426200
C          -6.01859132238850   -1.47318841030494   -1.36694456170828
C          -5.76469362575758   -1.38079977936372    0.01953485235142
C          -4.64268365623329   -1.86358607988971    0.63745802602991
C          -4.55137791772087   -2.06467178505001    2.01847189330196
C          -5.54772349317708   -1.95132760687646    2.99836976911306
C          -5.10301108771431   -2.25575385465279    4.33437579244745
N          -5.90764195401833   -2.12620924828462    5.37325825215221
C          -7.17132430640455   -1.76242171842234    5.13626713402268
C          -8.06358210695393   -1.50845208072591    6.26829085783732
O          -7.71357092730307   -1.59258742312305    7.44441276588387
C          -9.43081811084783   -1.10161849291570    5.90623590499854
C          -9.89624001984984   -1.03693049202179    4.65045729876865
C          -9.06772821318901   -1.34212462146074    3.48300483554650
O          -9.50143207141457   -1.37365448209108    2.34505181910986
C          -7.63859278700682   -1.60093125768105    3.79714562276949
N          -6.83020737687122   -1.67251435257323    2.76091476481331
C          -3.75312322771712   -2.69235565902738    4.37693420737128
S          -3.08040942071531   -2.64943883750379    2.75650404962994
C          -2.96761643247844   -3.15218935215732    5.41032451428410
C          -3.24649482866372   -3.23887612359670    6.77166556741473
C          -2.33333839013105   -3.81187511868510    7.68097975084275
C          -2.74745023954268   -3.77178907738619    8.98228283849448
C          -3.99733441574845   -3.15012682392081    9.13772865968359
S          -4.66320696727555   -2.65847308907520    7.59356520490149
C          -4.64314908949730   -2.86508130954400   10.33605832480694
C          -4.19369282913191   -3.16518059619709   11.64508557670553
C          -4.99519769973533   -2.65278745352890   12.61524477886787
C          -6.11659647347107   -1.92361770792606   12.12339029685505
S          -6.13925065948300   -1.99474017093816   10.36741092603776
C          -6.92881984567512   -1.15276438352836   12.90947989822994
C          -7.99196001429854   -0.29782805467910   12.49338753699636
C          -8.33254786877484    0.83116276661139   13.26294369464885
O          -7.62175102580673    0.94341895801259   14.41055403795828
C          -7.72333486075468    2.03673096278140   15.29594525675513
C          -9.30625328903606    1.76480532105253   12.78971127921801
O          -9.53175471895245    2.86294475523390   13.57685378062233
C         -10.40576980310746    3.86103477886878   13.11116562973828
C          -9.95755789611468    1.56941138141868   11.59237920313396
C          -9.69680837495695    0.41368608762310   10.84730114253735
C          -8.72192255606122   -0.52722473191029   11.30129076109322
N          -8.64619271250415   -1.58776984444161   10.50141934227084
S          -9.64366599040556   -1.38686066621934    9.26797180378434
N         -10.27276663729470    0.02386728391542    9.70451262383101
H          -4.45939042926783   -5.11877225697050    1.24848399036933
H          -9.30589280902229   -4.54803523420671    2.36830678404142
H          -4.16292213919674   -5.73604299102681    3.96866720431420
H          -8.79083622272138   -3.68792129568318   -3.09558970746414
H          -5.48867336883711   -2.65652745030410   -6.91969618429425
H          -3.40284779410581   -1.44452518264466   -6.00572005408548
H          -2.92766363022863   -2.04671289722457   -4.41140369812600
H          -3.77482546864438   -0.50655100316654   -4.55041882727891
H          -4.11352163824871   -2.03437136545419   -2.13898738300037
H          -7.03588752755401   -1.25141041385254   -1.66625849157858
H          -6.57577670300895   -1.03563126137389    0.64458373154909
H          -3.78823887911077   -2.16694616289834    0.04963118847155
H         -10.07181228640900   -0.85452969900565    6.74236716355456
H         -10.91616266888694   -0.74683589215332    4.44186980862030
H          -1.98123955360196   -3.49712575158337    5.12433626987394
H          -1.39879801846285   -4.23278132886448    7.35401781401651
H          -2.18180514053015   -4.16124686718956    9.80828366931953
H          -3.29939303477281   -3.73233805667073   11.83273668694584
H          -4.81239123380638   -2.74662815061176   13.67207961982293
H          -6.67693114742381   -1.10773336638778   13.96129095353095
H          -7.02420810953242    1.80396573683116   16.09987279955773
H          -8.72836816314585    2.13801181008508   15.70491389571986
H          -7.42788540693023    2.96971657393244   14.81668377373314
H         -10.06430436383912    4.28494348432449   12.16169424025330
H         -10.39223692934848    4.63596612766804   13.87683436879370
H         -11.42677665752511    3.48466725274347   12.99681060315306
H         -10.67532314505702    2.27407593599421   11.21333047008942
