109
 SCF done       -206.683010225381          0.005410456508
C         -13.79105998134069   -9.62002877753898    5.88132979736445
C         -12.56978794157022   -8.98510948044500    5.96715334762032
C         -11.38591841189178   -9.57824918249177    6.43364235698585
N         -10.35821263208062   -9.97262942801955    6.76859666313869
C         -12.29432981069037   -7.65389070017622    5.61102165208515
N         -11.94249760223169   -6.58432964368704    5.37431682269443
C         -14.05585650986201  -10.99217459068755    6.30765043719565
C         -15.43107031987749  -11.26538199163019    6.11149865780066
C         -15.98359754678983  -12.49247748483611    6.37682719228422
C         -15.13684207386370  -13.50014043209337    6.85703402711893
C         -13.76909962254756  -13.21191697319958    7.06640922017237
C         -13.21144395531536  -11.96562751722674    6.80358985270890
S         -12.90919502098408  -14.60072009049168    7.65928938141376
C         -14.37632218858253  -15.53799587191857    7.60757962375123
C         -15.45783417440909  -14.84917803975678    7.17599598206979
Br        -14.34450186071643  -17.34491630162409    8.12060398814299
C         -16.09293332205146  -10.05690303751289    5.56579090211848
O         -17.27426318921909   -9.94053536997684    5.30469833151084
C         -15.01617465744110   -9.06943150918108    5.38652293940685
C         -15.16428620210848   -7.83956634969648    4.76587174245990
C         -16.35793187470402   -7.25191937745333    4.39051162580440
C         -16.39188486702968   -6.01239802234895    3.76261481803606
C         -17.51669854676645   -5.23982556130165    3.42789243275141
C         -17.21531746716923   -4.05458990488543    2.80435867243904
C         -15.84020819275765   -3.86449436599957    2.60411918141308
S         -14.93192738019549   -5.19236877368597    3.26991219378222
C         -15.18170699106883   -2.84189764138391    1.91529024947555
C         -15.69894488132054   -1.69401943371154    1.30501802348148
C         -14.75208125489426   -0.95970455432865    0.63064620597567
C         -13.46103587605491   -1.50702731595700    0.67626664494669
S         -13.46154878624707   -2.95220726788789    1.65579276092373
C         -12.35127418982213   -1.07214378225430   -0.04765679564136
C         -11.10357687021780   -1.65544997873941   -0.06489533437720
S         -10.64363188251992   -2.92047276746324    1.04491035016345
C          -9.09462149320323   -3.17678276313252    0.27463693955441
C          -8.93873539614733   -2.27458757479225   -0.81550719317598
C         -10.03949654215709   -1.40547911656482   -0.98625629023592
C         -10.01194877062911   -0.47091052077998   -2.01652500226157
C          -8.92770537836080   -0.37339671559404   -2.87353142358710
O          -9.05924875375347    0.59159726262607   -3.81526411071200
C          -8.14222539154544    0.74744703099075   -4.87669417039677
C          -7.81393534603541   -1.24467908335722   -2.69193378435511
O          -6.75797030117221   -1.10834408329670   -3.54761331594724
C          -5.65238263187477   -1.96793235389823   -3.40962649062025
C          -7.84043090432136   -2.17570105394862   -1.67308279281998
C          -8.24540991316466   -4.17009924180405    0.72426178957743
C          -8.47458275960250   -4.87339040526356    1.90200634310736
C          -7.76754801690311   -5.96775895705544    2.34615293215084
C          -7.99117652777219   -6.55880701153266    3.59101478029655
C          -7.47225187704492   -7.76692933644789    4.07663405667741
C          -7.85583922387243   -8.06275651191164    5.36070594576878
C          -8.67040026924976   -7.07816887755516    5.94037526421579
S          -8.99257814921186   -5.80267746872986    4.80602686296912
C          -9.13491780835139   -7.01405857757597    7.25298731313293
C          -8.90783561138435   -7.92232624434936    8.29884906315946
C          -9.44595970961708   -7.52145931528808    9.49185543695770
C         -10.12520583130941   -6.28724802042539    9.43631247005342
S         -10.08014339150128   -5.65978319649464    7.81163063651173
C         -10.61558013105660   -5.59610996806941   10.53995163268134
C         -11.21796754539594   -4.34857636377070   10.57306714931820
C         -11.83225119152043   -3.61331798622782    9.56753415824243
C         -12.54835960521316   -3.98862088288314    8.39117412623559
C         -13.13476683719345   -5.20053507569326    8.09229752799222
C         -14.12557994842329   -5.31957354439897    7.10307632088763
N         -15.00059752504232   -5.45195705983620    6.36928839705179
C         -12.97069336172907   -6.40698541997597    8.79007352553064
N         -12.88442906200043   -7.43437659046098    9.29918465806135
C         -12.80462651335202   -2.77142398381310    7.62147351093405
C         -12.43978972742624   -1.65161565052343    8.40402741462337
C         -11.89213195224132   -2.14026387247466    9.69224199595089
O         -11.54299971376184   -1.47241641484513   10.64364906443083
C         -12.57525784804392   -0.36328618144717    7.94942376241219
C         -13.07946068136019   -0.17836522849455    6.65446092393729
C         -13.40308383021327   -1.30915885580109    5.87324064850987
C         -13.26957204287656   -2.61366149464910    6.33232459927768
S         -13.98007183447558   -0.85677520296464    4.29826091884201
C         -13.79283821341714    0.82579783246212    4.71035167644499
C         -13.31693971631877    1.04233595193354    5.95725870987299
Br        -14.24014637551316    2.12198017936097    3.42829688943011
H         -17.03356216294130  -12.67630502195953    6.21048456532936
H         -12.16181729518038  -11.79037687182626    6.97090106648349
H         -16.44040567033478  -15.27268759568646    7.08028396509036
H         -14.26231068566295   -7.27590892944382    4.55876681434425
H         -17.29225274642254   -7.74062313424282    4.62100561847826
H         -18.51404684892654   -5.57071396227495    3.65786029563062
H         -17.94720354692196   -3.33766603962020    2.47630612116472
H         -16.74009036702930   -1.43213965150714    1.35878218386345
H         -14.96254814389198   -0.05094156589479    0.09496164555102
H         -12.51465888261232   -0.23313070996878   -0.71063225275489
H         -10.83377584857604    0.20668862088298   -2.18135122793612
H          -8.56783306891111    1.53448911428096   -5.49948656299125
H          -8.04611285233133   -0.16766516931921   -5.46359760674308
H          -7.15792312508164    1.05693891722967   -4.52205307558432
H          -5.16303624448311   -1.84268131133239   -2.43898435203206
H          -4.96217207225361   -1.67798828068811   -4.20025449233816
H          -5.93885404498155   -3.01500711346396   -3.54542000060135
H          -7.00593030085324   -2.83973357183542   -1.52273194582896
H          -7.36665108076943   -4.40028756377971    0.13763547422051
H          -9.29062275247651   -4.53044609437119    2.52693081646878
H          -7.01268123377060   -6.41424561302754    1.71230860442439
H          -6.84121035800518   -8.39601645000148    3.47453879064218
H          -7.57431890202249   -8.95343592056777    5.88984006103533
H          -8.36622623041744   -8.83791010031216    8.15531575540719
H          -9.37455743113470   -8.08058535622981   10.40725496229749
H         -10.38261792995657   -6.04770639745129   11.49610909186789
H         -11.14085600790955   -3.81118427190177   11.51374084854594
H         -12.29718782962002    0.47982037291157    8.56196175431893
H         -13.49959914876491   -3.45045478088204    5.69325232012040
H         -13.13797744903724    2.01753392182765    6.37336394339530
