119
 SCF done       -222.602257744029          0.000793553304
C          -9.48195538081541   -2.52345855702245   -0.65264990820362
C          -9.74738930889751   -3.00872811822024    0.59559326470424
C         -10.33986152548306   -4.26714000608625    0.84324895926187
N         -10.81575706650034   -5.27856287988365    1.10003484512716
C          -9.43010348856911   -2.34902816173613    1.80409681199984
N          -9.17757258850211   -1.88320187758644    2.82141368457879
C          -9.71977459534287   -3.21626855972423   -1.91066293150131
C          -9.16207060704802   -2.45467169788655   -2.96935980568578
C          -9.20338581482688   -2.86272449738898   -4.28140943524949
C          -9.83617623697401   -4.07473296573844   -4.56878226311687
C         -10.40635779600568   -4.82340977990718   -3.50779862453748
C         -10.35558141059592   -4.41548990991158   -2.18093327031711
S         -11.14914634739710   -6.28260791009317   -4.08519175162274
C         -10.68825517597870   -5.87861371833056   -5.71829153793733
C         -10.01087432646737   -4.70973945071166   -5.82634818317563
Br        -11.13270622925297   -7.02886632781533   -7.12964149668590
C          -8.56478829570338   -1.22954391350955   -2.42882200658619
O          -7.94654542598751   -0.38566258312353   -3.04984288946681
C          -8.85184918862745   -1.24160488182461   -0.97153599296031
C          -8.62198064451021   -0.20144267854580   -0.14608392747272
C          -8.02222098832390    1.07511733826198   -0.59216099291410
S          -8.50624690913946    2.47943515586088    0.49461851829187
C          -6.79011876048270    3.07720834210624    0.67375704969040
C          -6.02318148921065    2.49342259783559   -0.51195263092963
C          -6.49112596174803    1.03650110517522   -0.55931397918225
C          -4.49022514988345    2.57310822554339   -0.24620077441978
O          -4.04039343311172    3.01159443242942    0.78503663234935
N          -3.75566103691716    2.11650133215114   -1.26725599380008
N          -6.37331219190955    3.25692088190983   -1.69160634853793
C          -6.68845006512857    2.89447191734205   -2.95819553879905
C          -7.55884317249864    3.76771138727509   -3.66662383348703
C          -8.01766327215825    3.49712853772255   -5.00830269931458
N          -8.88215463435457    4.36001973574805   -5.58352076026956
C          -9.26997641707820    5.41899267080107   -4.92980645987600
C          -8.79375042462007    5.69515260024028   -3.60032775347910
N          -7.96535145922077    4.86624875463122   -3.01338640644727
C          -9.20795817825292    6.86316649784349   -2.91834632620032
N          -9.55744288955647    7.81875036397262   -2.39109493977220
C         -10.17300189313459    6.32000038063650   -5.55110871631561
N         -10.89525110429185    7.07241927930956   -6.02417410103023
C          -7.63069508668649    2.34246445683694   -5.70001475353689
C          -6.72774794794336    1.50501869407638   -5.02221959483015
C          -6.22844281785105    1.78761576337929   -3.69472542264933
N          -5.31182920533863    0.88590753797403   -3.31194322938160
S          -5.14571096092164   -0.21666950120634   -4.46901877806719
N          -6.17051884229162    0.39527524649241   -5.52232123097424
C          -8.10481600015977    2.00731359182156   -7.03878573189560
C          -8.36688892170036    0.66767549847431   -7.35143870411625
C          -8.74625791990680    0.32745222635814   -8.62754125097884
C          -8.93732427264046    1.33017710041752   -9.59409027359252
C          -8.70203279220506    2.66263386054166   -9.28661013264111
C          -8.27365876565305    2.99138395356484   -8.01639372761668
C          -9.38949518416793    0.71058316645658  -10.81885537771493
C          -9.46814770685685   -0.67917813242174  -10.61708107760916
C          -9.07070588994826   -1.03896123044335   -9.19918036190368
C          -7.83037322243628   -1.95547195393915   -9.27519763723866
C          -7.14981683688896   -2.28672695559937   -7.95288846166412
C         -10.24359189071496   -1.63129553412053   -8.38961284887133
C         -10.86613820481031   -2.90818794681473   -8.94193899899910
C          -9.80890789854110   -1.50339606135943  -11.65988667410951
C         -10.15854932942149   -0.95466669161544  -12.90661521172467
C         -10.10219266664103    0.43598349764785  -13.07868508120580
C          -9.70722286909523    1.26581808966934  -12.05204015621780
C         -10.60963089468598   -1.85824001698750  -13.92799157122134
C         -11.10672460726336   -1.53950477640226  -15.14634048302467
C         -11.56308359301484   -2.48311431973065  -16.10284487600588
C         -12.01794541612273   -3.75985984724090  -15.94920373995529
C         -12.43285711183486   -4.55142717326340  -14.80983938371233
C         -12.96194331413508   -4.09816362556571  -13.62805714669580
C         -13.39226198987809   -4.93524578742656  -12.57887957867376
N         -13.72797460912236   -5.55838592206436  -11.67468310566136
C         -13.19785256587448   -2.74256143630600  -13.32544897439402
N         -13.44269723170489   -1.66386707393982  -13.01884628786315
C         -12.42915515846994   -5.95143122750760  -15.22839128253841
C         -12.24631668423557   -6.00799085116517  -16.63243804766493
C         -12.05796634073100   -4.63856637266781  -17.15035145778829
O         -11.91992875998548   -4.29567691811140  -18.30255503035391
C         -12.24674517184486   -7.19085175026743  -17.33068510174390
C         -12.42609063307963   -8.37509359097153  -16.60791907016547
C         -12.59020497268847   -8.30953018551549  -15.20363825723674
C         -12.59647052725233   -7.11262586546251  -14.49794775237218
S         -12.78523736035521   -9.88989462630409  -14.50831249691952
C         -12.65382512678549  -10.60703881176672  -16.09239686263771
C         -12.46868631252167   -9.71170912790159  -17.09124219945325
Br        -12.76895487305181  -12.47002831192663  -16.27627901209448
H          -8.75960735902278   -2.26024943279761   -5.05869663722045
H         -10.80310212549302   -5.02056551472027   -1.41031216222805
H          -9.65415885103012   -4.31493635004416   -6.75903092327639
H          -8.89064595953994   -0.25756578000521    0.89957445875138
H          -8.35836514065903    1.31430167767085   -1.60541831844802
H          -6.37093372516660    2.71927771778156    1.61381050429074
H          -6.79806068906347    4.16530101705587    0.68641270766077
H          -6.14950366854251    0.53657857741981    0.34931321934610
H          -6.11282262428791    0.49517028529595   -1.42307237868078
H          -4.18345639485814    1.67607772706486   -2.07695630184629
H          -2.75297239369611    2.12420663472845   -1.17262123734066
H          -6.79409827134326    4.16054144759098   -1.48316803294500
H          -8.28392397161421   -0.07026846781056   -6.57109495415906
H          -8.84466919759453    3.43252528337572  -10.02946238403609
H          -8.06063498560975    4.01966592936297   -7.77323090726451
H          -7.10168168058082   -1.46207376304390   -9.92381201887722
H          -8.12396155209423   -2.88404980695679   -9.76854917309089
H          -6.75120349474370   -1.39225031823388   -7.48296705687806
H          -6.32221567742455   -2.96902116396734   -8.13806440706935
H          -7.83458473408883   -2.77544529843159   -7.26435465225813
H         -11.02208466271898   -0.86617789562477   -8.33377649657340
H          -9.89494122103659   -1.80636711712400   -7.36999774339540
H         -11.38383534328029   -2.71227281621486   -9.87668314185118
H         -11.60049247653031   -3.28977962981147   -8.23504832420263
H         -10.12199052195861   -3.68360409316363   -9.11080168320196
H          -9.82756588472507   -2.57658920369375  -11.54183092977065
H         -10.36010842829645    0.86568961243850  -14.03344971863900
H          -9.64815292047706    2.33297909917153  -12.20294677173712
H         -10.52755566421960   -2.90885001094186  -13.67312297398181
H         -11.11192950336694   -0.50888366858182  -15.47135429020422
H         -11.49814928830735   -2.16984348540494  -17.14172104965728
H         -12.11566911512295   -7.20280392400449  -18.40127957084272
H         -12.72006719881009   -7.11398855480279  -13.42762345950781
H         -12.36675590040497   -9.98032282903294  -18.12681425718209
