115
 SCF done       -194.518881751145          0.000553221996
C          -2.58470222480495   10.59945665949576    3.23469026588804
C          -3.42440974010327   11.49250214765848    3.85336875580760
C          -3.11724762335557   12.16385403121571    5.05473032572211
N          -2.93161977875271   12.74442749075712    6.02792797800316
C          -4.70639479335257   11.86910119053335    3.40407195605306
N          -5.75864788437731   12.22914765064784    3.11449077628839
C          -1.26664100423981   10.20918818931119    3.72897651422106
C          -0.71780223588626    9.24680345352398    2.84677846443029
C           0.52075848222193    8.68470258687212    3.03333744923917
C           1.25922173483679    9.09360532228458    4.14900791184661
C           0.70412487726056   10.05338825033477    5.02742602275474
C          -0.55064333944273   10.62055271774368    4.83743694031113
S           1.78373632394650   10.41746304143515    6.33973915648156
C           2.95016837458108    9.29177371982967    5.69734609915236
C           2.55372857104701    8.67304489221430    4.56009848112113
Br          4.58144396952284    9.03972169561995    6.58826400957347
C          -1.67700103151840    8.99115334419423    1.75745382646024
O          -1.52378652373783    8.20581412370387    0.83808487839848
C          -2.82493482367730    9.86623864192000    2.00837187591213
C          -3.92506319714508    9.99363043145538    1.19514754557899
C          -4.25138287425911    9.34270309635868   -0.00134175074616
S          -3.31436920888014    8.08369889807750   -0.80403251510590
C          -4.49787061263133    7.98501188482878   -2.04805193632221
C          -5.55731003225901    8.89307080674174   -1.85237623927238
C          -5.42139800703732    9.64695329255471   -0.70535660892160
S          -6.75955257822654    8.82313856733906   -3.11778638742106
C          -5.83746181302226    7.57497608038566   -3.91022595282712
C          -6.02346957334529    6.84340214935168   -5.08476506399426
C          -5.00880168177102    5.93706108882902   -5.29981835438803
S          -3.80144252615560    5.99209619985277   -4.02849625565738
C          -4.66932550892941    7.24062925988056   -3.21644579162524
C          -4.85513129492399    5.01239276471675   -6.39575189134780
C          -5.60744374338558    5.16763448923667   -7.57146814957662
C          -5.44425614635252    4.27516033624614   -8.60225488819493
C          -4.50479208456609    3.23173883057895   -8.49925294757098
C          -3.75781167602977    3.06935648616777   -7.34029255135369
C          -3.94226349421174    3.95483330863583   -6.30031920378879
C          -4.46781340176784    2.51557261758162   -9.75180698849399
C          -5.37288041042231    3.12162729183635  -10.64078332571362
C          -6.12839532793848    4.23884787357961   -9.95053656462791
C          -7.60018052997285    3.77683900927564   -9.82921956658689
C          -8.50386900394295    4.65639555501705   -8.97533913718416
C          -6.01248258084129    5.57250482823578  -10.70174793457508
C          -4.56250431071171    5.98158352035337  -10.93421938911244
C          -5.49611456443866    2.66448500706340  -11.92749866455500
C          -4.72016478154871    1.57417173896203  -12.36521709084746
C          -3.83426185537474    0.97171579628803  -11.45512025544099
C          -3.70078906815190    1.43309638855287  -10.16432853058236
C          -4.85380924821583    1.13406567770205  -13.72384591262391
C          -4.29990825704106    0.01936192095362  -14.27153300743114
C          -4.44362584401361   -0.34715630570225  -15.62083548957240
C          -3.92289735279219   -1.49649274855677  -16.16159695363952
C          -3.99379271414423   -1.92457697855052  -17.50899081861921
C          -3.38726318973213   -3.12067353529660  -17.75230573340493
C          -2.80918901220556   -3.71360837879565  -16.60995012317423
S          -3.04752104841709   -2.68821902708839  -15.21054213393459
C          -2.15134714528533   -4.92547087999170  -16.51531442546014
C          -1.86711419368466   -5.84899454341576  -17.54467378400832
C          -1.21166538333389   -6.96371208163667  -17.11863851308169
C          -0.94051604068266   -6.99874792498862  -15.72661839162031
S          -1.55250847741512   -5.52502096949205  -14.98630617157418
C          -0.30995343344217   -8.02578174663275  -15.07321641733327
C          -0.01676394621511   -8.16758259015658  -13.70038263231237
C           0.62843506126986   -9.27555142904820  -13.14379816514317
C           0.74638093776992   -9.08415790840538  -11.74460824571142
C           1.29016403753642   -9.86478828353419  -10.74988386635480
C           1.24239708885081   -9.37465080039993   -9.43335159250027
C           1.69188044144736   -9.90867328792309   -8.23571101888209
C           1.39244554579637   -8.99469309553557   -7.17448285212928
C           0.75736788429674   -7.89643708843061   -7.72207247511497
C           0.63921695400541   -8.08706350297728   -9.13480638810396
C           0.09709877652109   -7.30739055215524  -10.11910740659176
C           0.14328526823218   -7.79724879042658  -11.44319195316675
C          -0.31150421402572   -7.25516984204875  -12.62762318187777
C           1.69098120900427   -9.16735229846149   -5.77345467809417
C           2.29369334343219  -10.22303742354747   -5.23304712871089
H           0.90830796102825    7.95437962946001    2.34048543893867
H          -0.92537343324405   11.34927190841785    5.53627081149646
H           3.14805590806811    7.95075885452628    4.03087115452781
H          -4.67389554358480   10.71472153240479    1.49978897794090
H          -6.12199502173532   10.39070168224147   -0.37106135214011
H          -6.87324150554929    6.96338121911937   -5.73020613479011
H          -6.27862349209468    6.00601178275000   -7.66630191531356
H          -3.03807789258424    2.26939171825554   -7.25618680903575
H          -3.37032251601674    3.84129722717323   -5.39050152285713
H          -7.60015225613956    2.76668762335011   -9.41104823648439
H          -8.01175367531819    3.71427426087715  -10.83910929563759
H          -8.17517508445276    4.65796860402852   -7.93951908030009
H          -9.51897515190909    4.26604006307413   -9.00597015834099
H          -8.52620158990503    5.67902302314601   -9.34286720859705
H          -6.51501216907269    6.35329652691753  -10.12933231769611
H          -6.52297179590726    5.48032510403975  -11.66276217805967
H          -4.03925649783664    6.09160318360058   -9.98678483120927
H          -4.52009866193390    6.93077508610683  -11.46361823509396
H          -4.04217302626994    5.23244252756623  -11.52679852089279
H          -6.18358500379657    3.13160796038694  -12.61875410849646
H          -3.22971712208949    0.13874651452131  -11.77796762673249
H          -3.00555424217241    0.96251906057683   -9.48501900023580
H          -5.46867154423651    1.75838043912204  -14.36155763577874
H          -3.71285661060969   -0.65199194069408  -13.65910290543654
H          -4.99140466372793    0.31184802766972  -16.28182732337146
H          -4.49048814628530   -1.33181807475111  -18.25704181129887
H          -3.34680639052317   -3.59260697294961  -18.71788525527707
H          -2.15040354171662   -5.66625803990563  -18.56576102312572
H          -0.91368083173918   -7.77342201154521  -17.76183100924335
H           0.00198054336849   -8.85237752032176  -15.70153119499019
H           0.97787642740474  -10.13483049460069  -13.68634278757554
H           1.74034114065159  -10.82399896233503  -10.96395668114753
H           2.18634063421694  -10.85546037137852   -8.11810617586261
H           0.40485335521315   -7.03453784531139   -7.18528521165129
H          -0.35462546414587   -6.34830030845642   -9.90794233358031
H          -0.80641124034238   -6.30809909733150  -12.73308068529867
H           1.38225964330798   -8.34563733753155   -5.13873759998947
H           2.61840262415103  -11.06373871617937   -5.82176718019082
H           2.48430938763881  -10.28216819925005   -4.17547687488203
