98
 SCF done       -215.381711190402          0.000879514579
C         -10.82566411506074   -0.75739861674546   -3.84689227518991
C         -10.46605135585598   -2.06975206780082   -3.70358453459272
C         -10.80338164845088   -3.08288999202188   -4.62839004137614
N         -11.04490897558094   -3.95131328347897   -5.33846398055087
C          -9.68876450380602   -2.61202196129912   -2.65525356777270
N          -9.05169798975466   -3.13766934707968   -1.85861237869492
C         -11.57019353629894   -0.20289415347691   -4.97164583803202
C         -11.64480916925534    1.20540764049059   -4.82168138312761
C         -12.27667369042952    2.02141232247533   -5.73034514519747
C         -12.87536996817518    1.41562559965010   -6.83793085194511
C         -12.80436350115453    0.00735041121483   -6.97877494467903
C         -12.15828303565543   -0.81461480173621   -6.06314036201322
S         -13.61550653853095   -0.53139630541698   -8.41481791677537
C         -14.03360181475169    1.11670853854106   -8.80372694628628
C         -13.58894327752377    2.02660540283103   -7.90401604687870
Br        -15.01743672735423    1.47708542277520  -10.35681055635263
C         -10.97256183211875    1.59220476352116   -3.57903694370891
O         -10.84822517955619    2.72436454668762   -3.14351927251603
C         -10.50670141672760    0.34642394962793   -2.95015748184669
C          -9.94459366976494    0.23234142601107   -1.71057963885523
C          -9.60019796756221    1.24185020883738   -0.78349763446139
S          -9.67497041242938    2.95651319721393   -1.06821009645916
C          -8.96881756443892    3.31858484767550    0.47189787269370
C          -8.65377896689285    2.14741352261316    1.16571975917166
C          -9.06546425318906    0.99317981097545    0.48552831740653
C          -9.05121131020230   -0.39001565563564    1.07639296534020
F         -10.19885219605434   -1.04416355918402    0.79900095704890
F          -8.05437223787669   -1.14838926515256    0.60601580750703
F          -8.96406875408743   -0.38959638084111    2.40615606934264
C          -7.86799892002790    2.11331172063696    2.44411158274690
F          -8.63466138257382    1.99067458636559    3.54307955663005
F          -6.98021458026675    1.11543117901103    2.46293122043476
F          -7.14849263602674    3.23193721386582    2.63639091135048
C          -8.89646849572200    4.65460797432534    0.93938101707308
C          -9.35921130236435    5.71257426044374    0.22951889374274
N          -9.46453373985212    6.96341910186323    0.74317490400595
C          -9.71313119888734    8.06094635371235   -0.01022611596344
S          -9.64364424144917    7.92697192188129   -1.74559407441793
C          -9.87141644854737    9.64079298173587   -1.88554668884484
N          -9.92420526572974   10.19070495364072   -3.17230062555408
O         -10.06785584503014   11.39468329328280   -3.26768494064466
O          -9.81876735572390    9.41106802301280   -4.10337218695645
C          -9.98496686765720   10.26777456139605   -0.67816475911444
C          -9.93057839553559    9.38139972476699    0.42117817331406
C         -10.13097485655123    9.88288684454841    1.74811309370992
C         -10.61659826730318    9.23047500464933    2.83528301963417
C         -10.79921159766717    9.88026272884879    4.07485447832489
C         -11.31325812259926    9.28685722078548    5.19609402516095
C         -11.36055026741349    9.81796823535552    6.51274056042919
C         -11.74223934821997    8.92384709065360    7.46499564454937
C         -12.03883123310424    7.63917000505983    6.95087641101302
S         -11.91601997204000    7.63742850569181    5.20888574083235
C         -12.21145940764570    6.44086590740806    7.61492808545333
C         -11.99139584747499    6.10383055917341    8.96887335679616
C         -11.82096198671786    4.76591804099201    9.16932303997877
C         -11.88434692089368    3.98232257007057    7.98710096864798
S         -12.38699694367475    4.98457237721133    6.65802576349751
C         -11.57772965172693    2.63781710572700    7.88014706340423
C         -11.43455753808631    1.84806110805412    6.73936346963879
C         -11.31169814794471    2.14656176014307    5.39382363263557
C         -10.95723253527578    3.30895061453876    4.64650428920025
C         -10.13323003196194    4.34780566251559    5.03999365486683
C          -9.75885750056572    5.39083686009149    4.18831530549853
N          -9.42338072473432    6.24962221964502    3.49585704445763
C          -9.49761531280403    4.39922041354134    6.29509856609596
N          -8.97480763650415    4.48253513173715    7.31355975422440
C         -11.45360445292783    3.12716560733283    3.28410256089749
C         -11.80115556979609    1.76678410118232    3.11068423842724
C         -11.65813906458588    1.07590695760413    4.41510388025432
O         -11.85252404819830   -0.09080262720272    4.65580699345218
C         -12.28469267673639    1.27866306748695    1.92260272966058
C         -12.48683997993580    2.19107653539498    0.87755902228730
C         -12.19722284920833    3.55797686214885    1.08607392951542
C         -11.66516143528940    4.04293651466558    2.27611224743725
S         -12.61639366377220    4.51965527144402   -0.29917016813189
C         -13.17873630179957    3.09350755726098   -1.12677372952431
C         -13.04174276787751    1.95292514074642   -0.41181285194349
Br        -13.94748467632983    3.26027658057158   -2.82100975342651
H         -12.31286862637528    3.08945007212703   -5.58771864674364
H         -12.13492361436899   -1.88040916407457   -6.21616498756263
H         -13.75800174552952    3.08468755359044   -7.98419974156059
H          -9.71553352221696   -0.77302612558608   -1.38400785749292
H          -8.51819180066019    4.82881983799376    1.93236154944112
H          -9.69294924252697    5.58758079338211   -0.79312451411072
H          -9.30770871798709    7.05535334226388    1.75453344862972
H         -10.13399174276950   11.32899894434831   -0.59010223438760
H          -9.94359698548894   10.94502787017882    1.84668502818265
H         -10.89807983290357    8.18825176435567    2.78216718836305
H         -10.47553632067108   10.90942816225277    4.16108402925370
H         -11.06308108334107   10.83163403855443    6.71553466232120
H         -11.79334345903751    9.13653959239842    8.51757332329113
H         -11.89953083001856    6.85102154626803    9.73617455850422
H         -11.57477094060704    4.32222457340006   10.11717807442215
H         -11.46046545122457    2.12246696977201    8.82561636917273
H         -11.48291275444943    0.77679060596189    6.91746752571179
H         -12.52691079481810    0.23406649388978    1.80525646432617
H         -11.48114538934187    5.09633564317241    2.40330026611012
H         -13.33978352406502    0.98200587456411   -0.76433134631564
