88
 SCF done       -155.065952215073          0.000586057921
C          -3.81195613555766   -1.41551118510213    2.13915533728224
C          -2.78680168840841   -1.26931749004462    3.04388914117569
C          -2.05769065937186   -2.34248048750765    3.59071843425495
N          -1.42457982110323   -3.17783257328009    4.06081976141047
C          -2.35379659368147   -0.03452864943046    3.56606347383931
N          -1.96565914193726    0.93277350414600    4.04997075348427
C          -4.35623536027261   -2.68326291744391    1.66456046927386
C          -5.46848007202986   -2.41112029917818    0.83145026415503
C          -6.20036552747951   -3.40188499717457    0.22617414682485
C          -5.81725133537935   -4.72847666845704    0.45622539523867
C          -4.70459346870258   -4.99038013691741    1.28845039248663
C          -3.96316183282733   -3.98626903001236    1.90090922394922
S          -4.39988635058354   -6.69570841573880    1.43006988900935
C          -5.75466606496194   -7.02784772898875    0.38396501848143
C          -6.40307915096271   -5.92138212649387   -0.04962002293200
Br         -6.18310450824589   -8.80457146792616   -0.03961076414790
C          -5.66397346646081   -0.94893021172057    0.73361525818384
O          -6.48122746042928   -0.37806437511867    0.03753783608446
C          -4.59370953492846   -0.35255363564736    1.55741320994104
C          -4.24913014945250    0.98168742968218    1.54371678109706
C          -5.05682440568635    2.05048383433604    1.13765858362724
S          -4.30410368911333    3.46181103720502    0.45870592017760
C          -5.81173262919321    4.25032702968083    0.13320118238562
C          -6.88646092619085    3.45241207080730    0.58205956366268
C          -6.45404799311625    2.23116181038111    1.18328186022295
C          -7.38027367029611    1.38904284855869    1.81955878143127
C          -8.71043376578445    1.69379317528768    1.74666426770789
F          -9.61423752405456    0.90920222199153    2.35322246879119
C          -9.15184608016912    2.83214260663709    1.04380752258677
F         -10.47067782287899    3.07747963781514    0.95105175179343
C          -8.26598199874806    3.70987470954079    0.48394383366577
C          -5.73938125154220    5.51436716109535   -0.49957146259922
C          -6.71444849878896    6.44141509815856   -0.67420265828192
C          -6.46496938600444    7.67007381202047   -1.35447785903916
C          -7.34720294430342    8.67342773529471   -1.52400656597690
C          -8.75835202634030    8.63816609326252   -1.02093072250797
C          -6.97157035370349    9.88188596258485   -2.34359980671031
N          -7.71849253693499    9.91739155755593   -3.58476528302397
C          -7.46215141534684    9.06735863390796   -4.60334875167401
C          -8.31037675181134    8.84455072887481   -5.64239169412079
C          -8.01059392292014    7.99528624755605   -6.72085833732166
C          -8.84887053823360    7.76165526584195   -7.78073399200899
C          -8.62792464145425    6.89993590934648   -8.88036303556686
C          -9.64575864672019    6.87084999104057   -9.78626008911803
C         -10.73008605247291    7.71333016466063   -9.45877977181275
S         -10.41985188528811    8.54155253186082   -7.95126163222407
C         -11.89676463398738    7.91732786285341  -10.17405664465748
C         -12.29012036997922    7.31484224009999  -11.38647403873781
C         -13.50441038338069    7.73463720471838  -11.84472463672238
C         -14.13801820774225    8.69513273711442  -11.02347873297671
S         -13.12541004390604    9.03993617163160   -9.62976598758513
C         -15.35335525746505    9.30299994135659  -11.23723897637432
C         -15.91764834550831   10.26372192799569  -10.38877355362733
C         -17.12126682503073   10.87227992201472  -10.60763213558123
C         -17.66916153124255   11.84829384108058   -9.74525003497882
C         -18.86030255767657   12.46361653433613   -9.95053496966513
C         -19.40275106358671   13.45379940528812   -9.07291714328440
C         -20.57500570062595   14.06275301618740   -9.27142018332013
H          -7.04302022052717   -3.16295525439209   -0.40344453781593
H          -3.11961331248006   -4.23561331046699    2.52271743798967
H          -7.25835450827288   -5.94254643390020   -0.70007890358108
H          -3.22708163596558    1.24021539387571    1.79531859910220
H          -7.05898802880019    0.52429036140128    2.37440060958701
H          -8.64915278991219    4.57089773258862   -0.03408791383828
H          -4.74743632709028    5.76749853797465   -0.85757500399264
H          -7.70509354029980    6.28239022122675   -0.28509052763180
H          -5.46597587217387    7.78845878307167   -1.75613832422022
H          -8.79573749329939    8.28865124309899    0.00806486760234
H          -9.36702964988177    7.96396615364445   -1.62471201318404
H          -9.20711582999363    9.62789873426098   -1.05938724681245
H          -5.90582408496083    9.86171638024212   -2.58483931292004
H          -7.18693246495780   10.80317713923726   -1.79475369663634
H          -8.66265918734617   10.27307099680698   -3.53263732648284
H          -6.49413360921484    8.58638967879861   -4.57090978691538
H          -9.27238772295825    9.34072832811519   -5.65420699459486
H          -7.05954789907648    7.47891492214715   -6.71587181611130
H          -7.72182347199327    6.32589977260185   -8.96597002289511
H          -9.64361119954888    6.27156732830112  -10.67899940775298
H         -11.67315281643004    6.59009444677305  -11.88710441834913
H         -13.96512606247780    7.38469924328147  -12.75190025138868
H         -15.89945254127224    9.01652090577162  -12.12678850762176
H         -15.34883636633223   10.53521815365959   -9.50736516716279
H         -17.69300991748273   10.60272225997279  -11.48655571948028
H         -17.08772653856377   12.11169008744829   -8.87014989154643
H         -19.44848170939308   12.20513876647943  -10.82165787805768
H         -18.80663169003059   13.70559559911398   -8.20483190753857
H         -21.19004646653951   13.83285825103083  -10.12574356790001
H         -20.95441244282238   14.80530836023212   -8.59147240550503
