123
 SCF done       -199.353401764457          0.000420036341
C          -7.17086062634564   -1.26765148870672   -0.68588800812557
C          -6.44422515895722   -1.49574154525752    0.47061726484254
C          -5.72054566440826   -2.67197169664366    0.73263396949243
N          -5.10070822804552   -3.60617422365081    0.98405667794256
C          -6.46439386570012   -0.60477064483847    1.54634676257500
N          -6.54048720437850    0.07125009841440    2.47920108036964
C          -7.47540312589127   -2.24335780185983   -1.71213550113999
C          -8.45992077582443   -1.69274442108541   -2.57137148790045
C          -8.98476134041001   -2.38776461356261   -3.63141663626484
C          -8.51448576895985   -3.68727968429448   -3.85805221013676
C          -7.52745855698250   -4.22548981992579   -2.99797560527931
C          -6.99787124824409   -3.52514909294675   -1.92226728002635
S          -7.08986368688797   -5.84269310015599   -3.46184853041178
C          -8.22683412914019   -5.77553977794908   -4.78283386523476
C          -8.89818689664962   -4.60296272060307   -4.87478556564153
Br         -8.41937482375091   -7.25909084943609   -5.91495951744117
C          -8.79628535683998   -0.32083330038779   -2.12887988776371
O          -9.59628747814287    0.41979130085048   -2.65586663951401
C          -7.89260932971315   -0.05094670487873   -0.98183111184649
C          -7.57342766241169    1.16795333931455   -0.44865366896415
C          -8.28116454268412    2.40786790099886   -0.48335053073406
C          -7.55017585093804    3.59218209385463   -0.24524045429504
C          -8.20246853652480    4.79189088783874   -0.14886638310392
C          -9.61053726086573    4.82527098080216   -0.19222269130639
C         -10.34087424931768    3.67452306892850   -0.46052302623735
C          -9.67679819697610    2.47956512192278   -0.62525511814864
C         -10.04397183456155    6.15682963636451    0.14631528140208
C          -8.91174260732759    6.95929791698127    0.38375059133124
C          -7.64870639655024    6.18942636056295    0.04661182371670
C          -6.55708663144108    6.18598162596477    1.12571703379885
C          -5.87299145384530    7.51550755689725    1.42370278114478
C          -7.16375192280780    6.73789097955297   -1.31933699951778
C          -5.96217037912898    6.01779614294138   -1.91621194341023
C          -9.06909165269760    8.26612804225170    0.78078211566319
C         -10.35710048068146    8.78673025371570    0.96356758545872
C         -11.46935824605471    7.98509242557575    0.67908197626454
C         -11.32483934181225    6.67369159693025    0.28180229949280
C         -10.58878351385426   10.13910896229092    1.43354900663055
C          -9.77672101060230   10.83766972010441    2.24061784083345
C         -10.07747014757591   12.16215709142110    2.76324045946821
C          -9.10405166727591   13.07394145505961    3.21056855578163
N          -7.71846113822000   12.99619376527910    3.23454305059140
C          -6.91986534263721   12.22629067164686    2.30255271086973
C          -7.35155216227658   12.45535447430315    0.85496714096982
C          -7.23096162820042   14.12923617834729    3.86254791563364
C          -8.30675035071959   14.99250051074128    4.16935897675326
C          -9.50296855191638   14.30596053336019    3.78116971410528
C         -10.83616478834817   14.66948809855969    3.88877478823098
C         -11.78950294362645   13.78135695622330    3.43460018641893
C         -11.41001583587545   12.56244824364826    2.89644158355459
C          -8.10414630065649   16.25505959824127    4.70573680354725
C          -6.80348363189245   16.66705942008619    4.92793628388781
C          -5.74876883531094   15.80140218914653    4.69869640507366
C          -5.91926866703162   14.48949360780442    4.23066840853166
C          -4.76497152990830   13.63138072827760    4.30424836055270
C          -4.75699108598959   12.29372035111041    4.54102289909508
C          -3.57100048522494   11.55917089281672    4.73354097444005
C          -3.51030085095481   10.19926552161071    4.88976134323466
C          -2.34980521211978    9.41787927718906    5.10975580213294
C          -2.57667057742971    8.07615717648569    5.16542884709963
C          -3.92784958128115    7.71322830087791    4.98251913681421
S          -4.91689310009614    9.14826616052432    4.78050071823736
C          -4.45727106659024    6.44203134094865    4.87757953651695
C          -3.76539911649239    5.20942286404161    4.88963549072415
C          -4.54922463548967    4.13627059074565    4.59743585441505
C          -5.90774259213335    4.44903324581082    4.33630372416742
S          -6.15762993399825    6.17625169274268    4.57447760968857
C          -6.85146534288797    3.56078368331370    3.89480954862546
C          -8.19798123198847    3.79927110509880    3.54837219448579
C          -8.98123749309518    5.00169310266510    3.63771771668765
C         -10.25872102799924    4.78645330134814    3.20170222984648
C         -10.36907315257521    3.42839422615808    2.80824853862108
C          -9.06216326402601    2.83062442856939    3.02645482505041
N          -8.89816645327307    1.52738032656271    2.71657617508008
C          -9.93779460053580    0.83494439906972    2.22848728977436
N         -11.13145120833509    1.32041323505084    2.03609001582499
C         -11.35977546575667    2.61162881842106    2.32069613525323
H          -9.73859061430544   -1.94769916139426   -4.26530566603002
H          -6.24527955495849   -3.97248332544945   -1.29402990122414
H          -9.63459577967619   -4.39130130756066   -5.62845970124848
H          -6.62601670396001    1.21973498631856    0.08080920618465
H          -6.47631425717962    3.52620688125284   -0.14409716570004
H         -11.41770871648235    3.70865610652209   -0.52026932039535
H         -10.23945387326329    1.58023165033395   -0.80826924454679
H          -5.79450289496416    5.46615350113463    0.82340993940180
H          -7.01249852091728    5.80912967954580    2.04172726844516
H          -5.55849779942641    8.02158136284505    0.51512587475825
H          -4.98596133107775    7.33434617389787    2.02710706707905
H          -6.52279353739068    8.17314688617341    1.99251304703368
H          -6.93242937386364    7.79788966520794   -1.20132698560789
H          -8.00065773186049    6.66574350388394   -2.01933905934110
H          -5.09340408998631    6.08975824453171   -1.26752470916616
H          -5.70773292004612    6.47017301051528   -2.87253193269591
H          -6.18796727646348    4.96867581940456   -2.08897926741503
H          -8.21872337125056    8.91113118873693    0.93041178702638
H         -12.45859121672532    8.40431691874374    0.79690853880416
H         -12.18941108668683    6.05952234152714    0.07917643341294
H         -11.52796017743590   10.57334162947900    1.11632568829922
H          -8.85696637730461   10.38284094552301    2.57632581370101
H          -6.95488725165344   11.16093936392140    2.54924115835484
H          -5.88633414282150   12.55581460275001    2.40896457219535
H          -8.35834654367105   12.08740704401521    0.67549361831342
H          -6.66834484486646   11.93557579746737    0.18790663656041
H          -7.32359692038373   13.51782024251291    0.62247609408965
H         -11.11257985252668   15.61466620837849    4.32953262225311
H         -12.83895674702834   14.02227440750418    3.51430206140379
H         -12.18553987004806   11.87275543793632    2.60216757084656
H          -8.94147201408508   16.89847029187111    4.92669943115338
H          -6.60532773151360   17.65644427303029    5.31192353049169
H          -4.74661479140264   16.12387205447083    4.94290179683749
H          -3.81009016028148   14.14452698062479    4.30352762756200
H          -5.68744761466096   11.74774087367719    4.61972327060275
H          -2.63358775240045   12.10019676333796    4.75313756755587
H          -1.38221734912693    9.87635519425391    5.21527275336761
H          -1.80902530787648    7.33938967865973    5.32213282974271
H          -2.71022061408536    5.15249677561503    5.08846949237956
H          -4.19235719944680    3.12291257006706    4.53577288210609
H          -6.50371925826495    2.54136303511437    3.77328323176167
H          -8.61334095220388    5.93783363749463    4.01370754754918
H         -11.04958456394538    5.50994259489511    3.16119847347885
H          -7.97907772939690    1.07153323519559    2.82359794307979
H          -9.76800395835322   -0.20436452781002    1.98648555109471
H         -12.36972359040138    2.95461467471770    2.14408464941111
