100
 SCF done       -205.863197763214          0.000453403227
C         -12.59837381829576    0.16216726361303   -0.54001947179411
C         -12.17771653072330   -1.13549386979600   -0.68743510699278
C         -12.97886503864585   -2.26369169520271   -0.41446665121285
N         -13.57769828983633   -3.22236307829822   -0.21209880628653
C         -10.90397108433556   -1.54070743523777   -1.13686414316206
N          -9.89511670279442   -1.95717227093150   -1.49485599604109
C         -13.92213624548304    0.56970484967438   -0.07748684157194
C         -13.99341959003125    1.98394929494336   -0.08891666146971
C         -15.11514475264437    2.67473950490980    0.29942161345291
C         -16.22383968498135    1.93385427637632    0.72133824471409
C         -16.14561456368223    0.52096276375546    0.72711065285249
C         -15.01012868700298   -0.17712380923993    0.33417336436774
S         -17.62772572993937   -0.19879129840801    1.27909823829999
C         -18.32247691099241    1.38594424149946    1.49181201913805
C         -17.48937520067618    2.40332297299642    1.16764258569975
Br        -20.08224652831263    1.54826325448521    2.12065789618327
C         -12.71382878986424    2.53271652721481   -0.57469892416217
O         -12.47399830248190    3.70763586541366   -0.77577683372600
C         -11.83498109673116    1.36432451656774   -0.80595604422882
C         -10.52572771954089    1.44247670858360   -1.20866240949444
C          -9.83347312241594    2.65535282553411   -1.36715953183340
C          -8.57432962576886    2.75439534772045   -1.88294475590296
C          -7.94359412171886    4.00753461894880   -2.02187763478869
O          -8.54032052602945    5.11760419694757   -1.51688783855491
C          -7.79643418239417    6.19989385567699   -1.84250136378089
C          -6.68383616019044    5.78403824485141   -2.57143763467062
C          -6.76634256981758    4.38163119081000   -2.67593843323418
O          -5.90484845765565    3.55711923105425   -3.29195010417567
O          -5.66862553281729    6.51479205357531   -3.10027378615709
C          -8.23735809758336    7.48617838460806   -1.44119632537046
C          -9.25608618733308    7.65828206863059   -0.55697880115339
C          -9.80717581971685    8.91338918825809   -0.21344552253059
C         -10.70795375694725    9.07725924136640    0.79273944264655
C         -11.39500075311102   10.27969219811187    1.08713822047329
S         -11.92315442822755   10.61922599437218    2.69804531625006
C         -12.63833984039271   12.13875449398860    2.26293462888144
C         -12.43775714234655   12.39773241795057    0.89618620468606
C         -11.77338899489424   11.32140303407906    0.22539189082433
C         -11.64707305163932   11.34148162419232   -1.17741725709128
C         -12.05767091282832   12.44305989840589   -1.86880289186779
F         -11.94844484413826   12.47127224874052   -3.20514599636892
C         -12.57405472956974   13.57027611559845   -1.19208200987266
F         -12.87376201938266   14.67242603140841   -1.89078969301763
C         -12.77181178739965   13.55265061632185    0.15814458001741
C         -13.41145462639882   12.80771752810542    3.24703278782850
C         -14.32492933340266   13.76850150469861    2.98544588160045
N         -15.14565930297822   14.34359571229431    3.91776500775218
C         -16.21354596163480   15.12193941157112    3.59428614885829
S         -16.72245298180420   16.35781802671297    4.69807772404659
C         -17.88173256461002   16.91007084158462    3.53044071491644
N         -18.69690603539664   17.99425585235251    3.89340771348883
O         -19.50602423843095   18.39033542391610    3.08010410878590
O         -18.51313621020035   18.46051545672352    5.00282402133472
C         -17.86142531981163   16.20033629415304    2.36632045564631
C         -16.93657988693966   15.13132372411713    2.38822931376163
C         -16.85943108360891   14.20458004139346    1.29605861813006
C         -16.52050788324122   12.88777130404410    1.27541411690424
C         -16.10908074201659   12.26303549696974   -0.01722415859396
O         -16.22590745577173   12.74476058054165   -1.11949933822902
C         -15.46392992538274   10.98923273651485    0.35175947059502
C         -14.84659276020632   10.07342077558470   -0.45165800702405
C         -14.30289113359523    8.90249557576995    0.12374629672277
C         -14.41314422687000    8.70616213667563    1.53096418041349
C         -13.87847414928996    7.53678406186517    2.10436661985793
C         -13.27911312390404    6.60861985991755    1.29847420223931
C         -13.16472601374876    6.77615664984191   -0.08893321058117
C         -13.66869104733271    7.91365669056941   -0.65750706898632
F         -12.77181035856974    5.49330335963208    1.85229145973852
C         -15.05212504370004    9.67372645649445    2.33931600867911
C         -15.57232789928555   10.79869025970605    1.75913435591959
C         -16.30945855090021   11.91992503388572    2.32998279768201
C         -16.88230490137024   11.93670612193496    3.57902836120508
C         -17.85231662452512   12.86999619081034    3.98645109284279
N         -18.67397207406332   13.58311874105160    4.35406279452333
C         -16.60255233891723   10.98963395877522    4.58283253949170
N         -16.36387131436335   10.28229266467860    5.45550797013431
H         -15.13719577139397    3.75323806763628    0.28130045225256
H         -15.00243684448574   -1.25376327473089    0.35879810978375
H         -17.75511345636074    3.44220002843550    1.23946317534039
H          -9.97767973381988    0.53132295612608   -1.40849282717713
H         -10.33810008298560    3.56524987248711   -1.07929256253455
H          -8.03095260442636    1.89188063772216   -2.23978910821441
H          -5.18747762472588    4.08320462357881   -3.67060625082990
H          -5.80446871917475    7.45085946499336   -2.91994415524671
H          -7.73544069930064    8.34261557712486   -1.87136718838531
H          -9.68896650911311    6.77962805922813   -0.10003141174609
H          -9.47042703761609    9.77387491832567   -0.77462021827417
H         -10.89617780752193    8.24424207197937    1.45758166586746
H         -11.25729241645223   10.49155307221429   -1.71108868014293
H         -13.14187979841227   14.44566413827939    0.63033182854411
H         -13.31779599889151   12.43115256079244    4.25768533394737
H         -14.48794819698829   14.12846654916465    1.98598979907649
H         -14.90064569879381   14.26248309927703    4.89673008249216
H         -18.52557282566103   16.40614989387135    1.54618407751784
H         -17.08683980647860   14.62895561196640    0.32260640726584
H         -14.78320390369177   10.23464502577964   -1.51729810893008
H         -13.95005812729443    7.37468585546711    3.16871611311075
H         -12.69913948021490    5.99416644701193   -0.66781688987248
H         -13.59530757642518    8.06568661442200   -1.72372800924458
H         -15.10926223839223    9.50015595261182    3.40185796137606
