94
 SCF done       -197.414909406445          0.000376678208
C          -4.93357545598863    2.84318015906882   -2.28303696833179
C          -3.73729623419015    3.11651194946750   -1.67161944917847
C          -2.57667108487473    3.53031072114553   -2.35656134226635
N          -1.60149559637934    3.85570482279259   -2.86709733503760
C          -3.53360625846448    3.05714758523078   -0.27677690741372
N          -3.31452254445343    3.05766728782534    0.85018719254921
C          -5.23719428200883    3.00618440414271   -3.69842713450075
C          -6.61666871225660    2.74866611198731   -3.89288536457494
C          -7.21111805587654    2.79744285322572   -5.13014027821749
C          -6.41292807510599    3.15208206172414   -6.22247982408960
C          -5.03807668972712    3.42104814414965   -6.01698198657106
C          -4.43167490208044    3.34495429119688   -4.76863540902885
S          -4.24642943931156    3.86456836744023   -7.49593130371513
C          -5.75243516582744    3.70266248623173   -8.35626071743195
C          -6.79580002422067    3.32209209724385   -7.58037153154327
Br         -5.81418009419038    4.05899518449421  -10.19461607437369
C          -7.25566993635989    2.45263497605549   -2.59826211532027
O          -8.43223162089773    2.21870037976511   -2.41061145099566
C          -6.14913403773764    2.43099846262041   -1.61144773237236
C          -6.20736478107298    1.83033638718643   -0.38047433949407
C          -7.36699244431460    1.50918073185106    0.36720876126401
C          -8.53270763324612    2.25574175761426    0.39718896147516
O          -9.63518282122997    1.87468826681550    1.10020412734006
C          -9.51523396307328    0.71038555009273    1.80516580787650
C          -8.28827302436406   -0.01088010933584    1.85600272427366
C          -8.35979363611089   -1.11322391442564    2.64238219929553
S          -9.93114302461232   -1.28749957118098    3.32949633001583
C         -10.49496558599290    0.14020943022849    2.55045570049143
O          -7.19024150318512    0.38974671659727    1.15422905312845
C          -8.62919615344872    3.54157867798020   -0.20510650371450
C          -9.79864401325052    4.20339745367530   -0.38571559049368
C          -9.88306274701467    5.47683734246701   -0.99096196832573
S          -8.46185235355384    6.36518855768350   -1.50518551622668
C          -9.41959950449687    7.63375716521356   -2.19201483001367
C         -10.73504766205297    7.39794340911699   -2.02110252654070
C         -11.02982111530743    6.19295324958613   -1.32197035157170
C         -12.41330209669918    5.95256370613886   -1.07567623070856
C         -13.25178897997608    6.90369955625203   -1.55811150234798
S         -12.29972454891541    8.13946697873872   -2.47606056690731
O         -12.46189453642619    9.46075210083412   -1.94646674394638
O         -12.53265850906814    7.95491615469303   -3.88688624120329
C         -14.65488791428622    7.04046225631222   -1.58167307712503
C         -15.55147299034816    6.28028797858423   -0.89864329283510
C         -16.97060950273809    6.30016914938467   -1.07691513882430
C         -17.61031143325911    6.47194978316782   -2.29374557295140
O         -18.97533701389918    6.46749063086926   -2.42245703979609
C         -19.66991093403851    6.19531550174764   -1.27989426536837
C         -19.01152717596826    5.94333450367070   -0.04234201793496
C         -19.87415912944285    5.67646217989332    0.96988495647476
S         -21.50675947782391    5.73043577742413    0.42523998547729
C         -21.02004434386534    6.11678363083856   -1.18184710866804
O         -17.65056637817769    5.99335886876623    0.07296183931662
C         -16.88711152046429    6.47251341885401   -3.51114097204071
C         -17.39526943284123    6.49864652911797   -4.77271684335349
C         -16.55138166679139    6.38577979638606   -5.90570272670602
C         -15.26441417520368    5.92681943949966   -5.97056934697336
C         -14.42671984956030    5.18368420753093   -5.05303277719281
C         -14.82558822305537    4.23617204105227   -4.14108077739964
C         -13.96231035700003    3.59368699847324   -3.23593361593668
N         -13.32697523517745    3.09249436019807   -2.41986461558046
C         -16.16093830231069    3.81626530385440   -3.97832967658794
N         -17.22276735484548    3.40809895166914   -3.82464982070462
C         -13.04190251336081    5.46430067334413   -5.40851934406549
C         -13.01865905068417    6.17791863556307   -6.63133445757896
C         -14.40516574796715    6.38683558221386   -7.09785039009264
O         -14.77374148989599    6.87077680623055   -8.14161730437623
C         -11.85221723052403    6.61531196350610   -7.20819050539865
C         -10.65417534695048    6.33737385196013   -6.54244265388170
C         -10.69018343980750    5.60341039228769   -5.33471567670992
C         -11.86665935301923    5.15259908754765   -4.75415191472273
S          -9.10028041677159    5.37985973380961   -4.67349877931610
C          -8.41969614571364    6.28988535051618   -5.99652479763792
C          -9.33062572988471    6.71925088980836   -6.89991943186249
Br         -6.57443262513828    6.61468131807863   -6.02852024352781
H          -8.25970054895021    2.57486089549747   -5.24974550219236
H          -3.37902739905685    3.54728306001349   -4.66216844444306
H          -7.79504720531878    3.17404354518683   -7.94811356037441
H          -5.29118725553463    1.44991649791768    0.05588509171078
H          -7.58761414527032   -1.82250317470725    2.85457793832742
H         -11.50233558542475    0.47557774309447    2.68201844374376
H          -7.70335476562556    3.99934168193889   -0.52230243576881
H         -10.72993569306735    3.72633924008955   -0.11726460158313
H          -8.93937026790435    8.46398333237803   -2.66999520206479
H         -12.74552806609059    5.07042144618710   -0.55220615316454
H         -14.99801028170369    7.85599570392764   -2.20542994696056
H         -15.20561097876656    5.62078696832482   -0.11436604538788
H         -19.64343153749338    5.45444256012249    1.99068243687323
H         -21.74611145984949    6.25828799847267   -1.95454579102825
H         -15.81864321484564    6.40277166005796   -3.40696264036375
H         -18.44760271849356    6.67804372508982   -4.93413322437242
H         -16.92926447653545    6.79294753959598   -6.83826687821909
H         -11.86243875617045    7.16735641030295   -8.13477420436585
H         -11.84170980228894    4.61192909915328   -3.82221249680843
H          -9.08537549726524    7.29207653661711   -7.77572440159108
