88
 SCF done       -190.565761910212          0.000230205264
C          -3.78032133007462   -1.92493717980029    2.68699943525796
C          -2.83565108886048   -2.02665891342568    3.67688865603324
C          -2.07780970652441   -3.19139054730802    3.92324888021545
N          -1.46626296668633   -4.12008647224913    4.20873162908702
C          -2.54076013051600   -1.04734765240670    4.64802319170436
N          -2.24130459449699   -0.32110241481696    5.48589853766010
C          -4.10006817042555   -2.96367872298847    1.71786517764140
C          -5.22570366703320   -2.55533966706095    0.95922545037462
C          -5.78847929232852   -3.34595609497268   -0.01280611276554
C          -5.20775273865645   -4.59515652365072   -0.25608189908075
C          -4.07431453603112   -4.98952842036509    0.49704145157109
C          -3.50799089332631   -4.19152885087684    1.48203347737547
S          -3.51651852180169   -6.56758614571048    0.03879634434813
C          -4.79546103891224   -6.67923267518303   -1.13962765044922
C          -5.59947347403021   -5.58968302033675   -1.19182629649261
Br         -4.95083870653495   -8.22198897949555   -2.18998352398381
C          -5.66872055892986   -1.22403589440500    1.41044303641191
O          -6.68261222903128   -0.64877616286003    1.09264563632340
C          -4.68565934915785   -0.81394661385709    2.45779930321524
C          -4.76298135079124    0.32907084153698    3.19295959282728
C          -5.61939973454345    1.42941581740750    2.94681950868156
C          -6.16134967022933    1.98871294661350    1.78783704689416
C          -6.99621860578202    3.06496705349212    2.16090444219121
C          -6.89886091964594    3.21716729750162    3.61291456238363
O          -7.40096127337274    4.02268924731271    4.37302632180447
N          -6.04010014370960    2.20436362439749    3.99666038189341
C          -7.47770145271353    3.65241923579215    0.98421745353237
O          -6.89815841737512    3.02602818310644   -0.08489031315119
C          -6.08055734502935    1.97920862841120    0.33678557242441
O          -5.45404113505718    1.31614724535543   -0.43750210983221
C          -8.34826064003363    4.71831895384914    0.76854566815691
C          -9.24685682959840    5.17305018832447    1.72492721620660
C          -9.94153727749970    6.40584577946614    1.77764978591497
C         -10.69699192294902    6.56852546745721    2.90644458976675
C         -10.65117191075864    5.45330914334089    3.76919354894774
S          -9.68236990318314    4.18890345701112    3.07874746947047
C         -11.14027600393647    5.25876139330520    5.05852784020090
C         -11.88085221597662    6.07938081831553    5.92759399456663
C         -12.05247799147138    5.54298936519475    7.17715987477275
C         -11.45505372300770    4.27384556468626    7.35646155492075
S         -10.70123449313272    3.77831815889601    5.85995127555732
C         -11.36584960848552    3.55313322409688    8.53789546665385
C         -10.68332484016921    2.35188082837315    8.71795339016956
C         -10.29873548255593    1.73642086170430    9.92045343852558
C          -9.44698524828225    0.65092124527311    9.62230399764281
C          -9.38652662069315    0.51061111740305    8.17121449637189
O          -8.83965066195120   -0.30380439415164    7.45796242528575
N         -10.14137177523030    1.57215771203648    7.70937298301870
C          -9.00912829713726    0.10790849036518   10.82346681254846
O          -9.60557559493725    0.77518429042574   11.84823896210207
C         -10.39501176289750    1.82161681804437   11.36356211082784
O         -10.99922938831261    2.55555835375920   12.09355928264288
C          -8.17193069979452   -0.99537626309974   11.08599073732587
C          -7.29014223398986   -1.56188238819082   10.20831318937766
C          -6.73411967958848   -1.06554786703967    8.97320386804579
C          -6.42257985449346    0.23725174672319    8.67925608774121
C          -5.86725822855084    0.65483286509434    7.46218643843071
N          -5.46365056812240    1.07569473787371    6.47173159572607
C          -6.65955381624517    1.32262918588660    9.54783316870243
N          -6.81459216603586    2.24514855030357   10.21236683512955
C          -6.34175888240863   -2.22248799824832    8.18276849353473
C          -6.37758668942189   -3.37389755769951    9.00908738112294
C          -6.87537128356984   -2.99162040025279   10.35043817228719
O          -6.98824990462893   -3.68564430755360   11.33030404794020
C          -6.03974517287193   -4.62083439048272    8.53903266755374
C          -5.68934625311348   -4.73749232433731    7.18777382524253
C          -5.70440577048332   -3.58372786738326    6.36814981947127
C          -6.00930409903126   -2.31714960578458    6.84718807820543
S          -5.31404253149385   -3.96578801660019    4.72021989732315
C          -5.10745770270608   -5.64184418148615    5.15016516635054
C          -5.33178451390635   -5.90679021362011    6.45842404458536
Br         -4.63245987355617   -6.85919313156758    3.81321400687215
H          -6.64809032161342   -3.00817804096169   -0.56968287084655
H          -2.64617458233830   -4.53842222717999    2.02700290463400
H          -6.43459479777938   -5.49121851964135   -1.86099227011411
H          -4.17386732900134    0.41766344386738    4.09809343877258
H          -5.80654526733057    1.98874649294050    4.96932509995114
H          -8.32304351344855    5.19378170105570   -0.20169028690905
H          -9.82543284061829    7.15208233502943    1.01190260218293
H         -11.25663187521498    7.45579821676858    3.14196347884512
H         -12.25319284498212    7.04215150744590    5.62672073610787
H         -12.57283548318249    6.03513555376755    7.97938802994285
H         -11.79107986512068    3.99162263136260    9.42975766643898
H         -10.29724154979699    1.70785003664405    6.72319673172889
H          -8.30144853246801   -1.48514511454859   12.04433777824071
H          -6.05892607223963   -5.48413410553620    9.18552397057736
H          -6.02239577622043   -1.46517342628629    6.18863597336432
H          -5.25148419014218   -6.88609706341976    6.89392612805050
