85
 SCF done       -155.091837585303          0.004531714049
C          -7.29086662895595    0.86196707776801    1.34832006628481
C          -6.64384823603953    0.08880083632521    2.27423050046590
C          -6.95591025178610   -1.26306075539287    2.53108968673687
N          -7.17311278184279   -2.36209611822130    2.78343697849361
C          -5.62129370139387    0.54467164366840    3.13572859378764
N          -4.79603075178530    0.83546395746727    3.88006435600867
C          -8.40425559282693    0.44799166670378    0.50932594463702
C          -8.92538029447394    1.58325316806107   -0.16371064058851
C         -10.00595950182331    1.51119162695990   -1.01045385607660
C         -10.59512258796574    0.25940307966537   -1.21484571626328
C         -10.06229919600528   -0.87207715782328   -0.54741390275643
C          -8.97374526138436   -0.79984120754126    0.31238104621255
S         -10.94147209956141   -2.31783517302756   -0.94242309875559
C         -12.00741703223880   -1.39506554503659   -1.97234270877812
C         -11.71446700020815   -0.07370461439490   -2.02689467681094
Br        -13.40424117135159   -2.26139981589117   -2.87424486233836
C          -8.15970382489627    2.78424214093826    0.22558676231619
O          -8.44459428588635    3.93289081515211   -0.00737673801504
C          -7.02749485957137    2.27022066106549    1.06340321410493
C          -5.96751198749295    3.00132198288355    1.44875601094415
C          -5.74198859572545    4.38276805944481    1.01872792915250
N          -5.44154394070715    5.25084838842385    1.98127475501447
C          -5.27126872820539    6.51252994923610    1.60999191858596
C          -5.33578531680627    6.90540731501982    0.28859077630751
C          -5.60430229130644    5.90425553267053   -0.65945165026234
N          -5.81431012850385    4.64676767423957   -0.27513475188160
C          -5.64666771623792    6.23473022947375   -2.06634904103734
C          -6.09173973620554    5.43959365884347   -3.04854165453052
C          -6.06602839483380    5.90186327937711   -4.43111887247659
N          -6.61403333357889    5.13725364808509   -5.37893660881733
C          -6.56552379545152    5.61235314754895   -6.61577786649749
C          -5.97624144474925    6.82036316873221   -6.94378041771096
C          -5.40259944139680    7.54952364796774   -5.88728546455258
N          -5.47628124647260    7.06555657153988   -4.64425728822119
C          -4.70686741385138    8.80068620072251   -6.03990823911544
C          -4.09273721716991    9.33286519578225   -4.94932221580673
C          -3.34336838069351   10.50967778770375   -4.81770168651924
C          -2.75671976955954   10.83158425749676   -3.61214191834754
C          -1.96059175014485   11.94709793994955   -3.27257564588987
C          -1.50792681822464   11.94509706396954   -1.98055618520439
C          -1.92130979666939   10.82885231133581   -1.23304312058310
S          -2.92049457111606    9.78113410661124   -2.21148223693612
C          -1.62204136407688   10.48400255678499    0.08083715399849
C          -0.82339337693534   11.15973181387695    1.01584153412428
C          -0.71707722883048   10.51082247728577    2.22096022532587
C          -1.42164206680089    9.29971006928662    2.28943253722009
S          -2.24746161882676    9.00578485658180    0.77210745430705
C          -1.49331890458160    8.41080549538425    3.35664252138343
C          -2.19091233690577    7.22172402366799    3.31476191956843
C          -2.30575521627124    6.30373307861883    4.34926827459658
C          -3.03537407350906    5.09950958823209    4.31030248402747
C          -2.96499420561330    4.36501763839349    5.46071970819189
C          -2.17958880787399    4.96226035729288    6.46870802272960
S          -1.53214232853102    6.49302785310761    5.90657715432766
C          -1.92516683351538    4.48445006418152    7.74000292702720
C          -2.39164950589476    3.26715716671476    8.30429736889022
C          -1.99959038968296    3.06086190567748    9.58378591789555
C          -1.18709760121167    4.10770218445489   10.12931386448276
S          -0.95467781419823    5.36176582678263    8.89901028394052
C          -0.65961590691480    4.18949230347346   11.36015021943812
H         -10.38239573705074    2.39524597067371   -1.50132092126361
H          -8.60338031756095   -1.68783303454079    0.79808232885514
H         -12.26580430730874    0.64024646074110   -2.61133216975518
H          -5.21688894579452    2.59796967042616    2.11533123662663
H          -5.07074840430767    7.21189217930670    2.41233453492697
H          -5.17692575370532    7.92855440791399   -0.01028734564939
H          -5.29622426452315    7.22502528949106   -2.32454308593077
H          -6.48280593569624    4.45245766916116   -2.85813599969301
H          -7.02069206915641    4.98387826579012   -7.37286764313511
H          -5.94664373339406    7.18026625400893   -7.95962651338918
H          -4.67552837008916    9.26289429697895   -7.01420610682121
H          -4.19416726050128    8.74212639041009   -4.04736781232920
H          -3.20590382869214   11.17519679623860   -5.65844538959754
H          -1.73835376767132   12.71782943085342   -3.98961030359226
H          -0.88757914346580   12.71631173604741   -1.55800946139863
H          -0.34271002339605   12.09451949683665    0.78946960105346
H          -0.14277100724873   10.87663268410010    3.05383382398439
H          -0.96591306652724    8.67947351041252    4.26270531601144
H          -2.69872922528602    6.96327358317325    2.39285111912041
H          -3.61526624292470    4.81826558635516    3.44759539919181
H          -3.45751423067971    3.41868779962760    5.59735722600314
H          -3.00149916936499    2.58470313503505    7.73942038738185
H          -2.25571947517846    2.19834618896446   10.17300225200683
H          -0.82362639620546    3.40965109961388   12.08247116088139
H          -0.06195286820031    5.02930846900920   11.66288132088015
