103
 SCF done       -183.172780825455          0.001748924976
C          -4.99233753990812   -7.26967706994011   -2.36628180530212
C          -4.16586747345707   -8.03414431998619   -3.15179697722169
C          -4.62007699475626   -8.96181961490035   -4.11188693913629
N          -4.91430477510226   -9.73986966385666   -4.90355867971909
C          -2.75685984272392   -8.02730183018210   -3.12853290281986
N          -1.61110707405829   -8.10926672280497   -3.17470802127232
C          -6.45137626344556   -7.30391997158340   -2.41292383044633
C          -6.95550627004085   -6.35733671723397   -1.48959377135444
C          -8.29867569029741   -6.13996051950378   -1.30838876460459
C          -9.19156587988865   -6.90359418659688   -2.06869103371706
C          -8.67906819742165   -7.85125916610724   -2.98460137917785
C          -7.31914130470122   -8.06509871843158   -3.17314054660757
S          -9.95373824744695   -8.68485079925477   -3.82287313790805
C         -11.14002082614977   -7.76200687854571   -2.94151459228831
C         -10.61313419959147   -6.87444524463458   -2.06511242888609
Br        -12.96571021142945   -8.05428897151396   -3.26127712915043
C          -5.82690397556574   -5.68574935594004   -0.81259336202422
O          -5.90995038098413   -4.74747717898749   -0.04372631028415
C          -4.60474910179840   -6.32223438075139   -1.34188430778469
C          -3.31161859377215   -5.96769823978007   -1.03773578789083
C          -2.83417713790796   -5.20278325493320    0.03713840018516
S          -1.27708862764971   -4.43369542040341   -0.16192161964650
C          -1.40506724339576   -3.71463001680003    1.37769111335057
C          -2.54182084509303   -4.04956781742222    2.05530482448799
C          -2.81888441649231   -3.52753663397812    3.42459396233861
C          -3.37091181451529   -4.93765713946807    1.31013733135985
C          -4.49085285128876   -5.68042558703463    1.79236532521715
C          -5.29795284730079   -5.42241208107576    2.84811493994156
C          -6.26032066175440   -6.37105289305022    3.29098207364859
C          -6.95711143482907   -6.26473690640347    4.44520667333119
C          -7.75850441817931   -7.33435802453845    4.94907530588453
C          -8.26993069502585   -7.42600132923433    6.19125390347031
C          -8.09807595630787   -6.37861454837583    7.24301625768477
C          -8.82590756280172   -8.75154552806976    6.65226715971000
N          -7.69843216409975   -9.51670409652527    7.16084751485265
C          -7.28842594484979   -9.46500787911685    8.43799648520056
C          -5.97416692908838   -9.57882740974145    8.78927871277758
C          -5.46851450305355   -9.49279725600182   10.09070018850995
C          -4.14516599698899   -9.20598886201281   10.33683766020793
C          -3.51506259521992   -8.89593506472375   11.56080835836708
C          -2.26532975036391   -8.35867221007911   11.42746717493441
C          -1.84967402099545   -8.22194506305092   10.08633395118867
S          -3.02775745220364   -8.90784804894817    9.00787779988166
C          -0.79126115645631   -7.49255999445500    9.56273164494296
C           0.08542009566979   -6.60188066210583   10.20409240112177
C           0.75377150287406   -5.78215641396798    9.33674441946435
C           0.42723499208127   -5.97926256366063    7.97709618027936
S          -0.63980529092158   -7.34012346123085    7.82362950560725
C           0.91361506691130   -5.21203013653804    6.92310450071499
C           0.61441793059614   -5.22860221394590    5.57334598826862
C          -0.35415301264171   -5.85960951530380    4.79322824626545
C          -0.02192339162369   -6.05316862486738    3.36478901658961
O           0.90851602334180   -5.56464956510173    2.75581405537215
C          -1.05678281508631   -6.96389024988066    2.83158614083941
C          -1.14972598360336   -7.54145983636844    1.60175577815974
C          -2.25312444888023   -8.38126548521911    1.31986977288326
C          -3.23546861020483   -8.59896661532347    2.32651937704074
C          -4.34893358212494   -9.40498661168591    2.02320473259856
C          -4.46659859104222   -9.95150348259265    0.77518507920327
C          -3.49843493484852   -9.76961552193065   -0.21812070393642
C          -2.40453611870845   -8.99589007969789    0.06227414862770
F          -5.55512226968832  -10.69631343618030    0.48188938765223
C          -3.10261606755338   -7.99174302522097    3.59946178617885
C          -2.02921869085444   -7.18475154850737    3.84598378831552
C          -1.64564573294069   -6.40603607645908    5.02640861950801
C          -2.50803322769533   -6.10376317267122    6.07149149614608
C          -2.24839611068089   -5.06412383601793    6.98175633191448
N          -2.08148499331074   -4.19051572417063    7.70971051380983
C          -3.76747037030945   -6.68987740536404    6.25640413459455
N          -4.80279860291479   -7.14496532265445    6.47895018117246
H          -8.64964069277846   -5.40622745229644   -0.59971600576843
H          -6.98177238852953   -8.79687870161518   -3.88744639566603
H         -11.20060458929028   -6.22377903067513   -1.44336049858315
H          -2.54222418707030   -6.27579511891220   -1.73552596473014
H          -0.61437071075382   -3.07767150684950    1.72458915146362
H          -1.92218629182094   -3.07465923654078    3.84187606676520
H          -3.14613123621470   -4.32807250673622    4.08402208356112
H          -3.60148711244060   -2.77000151379699    3.38954402355776
H          -4.67141658752301   -6.60327659927646    1.25193601119338
H          -5.23765835082210   -4.49315692626147    3.39065630675602
H          -6.37054059463289   -7.26507338740255    2.68898102919295
H          -6.83299736009901   -5.38574424284814    5.05941134553955
H          -7.89864422179785   -8.17006045506567    4.27226337778481
H          -8.22689975329409   -5.38253337260905    6.82812790514594
H          -7.09137345925413   -6.43931023965040    7.66130976735108
H          -8.81559840402639   -6.51284226643697    8.04981285229402
H          -9.27323368880841   -9.30582928403767    5.82272471923353
H          -9.56365875890584   -8.63708311414727    7.44782246889284
H          -6.94699421717328   -9.59780783880002    6.48423608560803
H          -8.05983903490568   -9.32115986864615    9.18305145750590
H          -5.24771164740682   -9.61789557644738    7.98706556854563
H          -6.14428028585342   -9.55409016275042   10.93313987601515
H          -4.01557382026371   -9.03673438259724   12.50295340284751
H          -1.65555398213998   -8.02688591128861   12.24836601905889
H           0.16435524951213   -6.54685674085922   11.27487630674159
H           1.42853845361498   -5.00224243807931    9.64104945486880
H           1.69323132325708   -4.51867008389997    7.21681404801583
H           1.33327533587468   -4.69841777146014    4.95212994761441
H          -0.39974517791931   -7.36115517641444    0.84619749830894
H          -5.10687228825542   -9.58428784631839    2.77041283138454
H          -3.62755374845508  -10.24951230601867   -1.17568390545965
H          -1.64058918376158   -8.84549984979328   -0.68523280060177
H          -3.85887148450832   -8.18061589101820    4.34474765686725
