95
 SCF done       -171.653504878754          0.000945670623
C          -6.29593804667983   -1.23389279844596    1.99349936324937
C          -5.65028938130551   -2.37305363135113    2.44105432632044
C          -6.31148496702247   -3.41912691897121    3.08942050590851
N          -6.81461649087986   -4.27465751747027    3.67639086968227
C          -4.25579634509802   -2.55249629943238    2.42346118770556
N          -3.12362398962759   -2.74678912687217    2.47068719480140
C          -7.72282306813881   -0.98053377270213    2.14140583837486
C          -7.97857068684063    0.36876098584939    1.80023469345721
C          -9.22419939678817    0.93581069031350    1.89098433536632
C         -10.27441608975242    0.13448648021314    2.35756434266936
C         -10.01243624282836   -1.21423544232139    2.68584418825208
C          -8.75378529927861   -1.79242773135097    2.57468961163677
S         -11.44307059396255   -2.02292599619034    3.25710041506336
C         -12.36114392182730   -0.55350924948655    3.04855338360329
C         -11.63516335604891    0.48617858787783    2.57425112831994
Br        -14.18798570666508   -0.53417551085796    3.48284086491255
C          -6.70974271575831    1.01618465760040    1.40607668063558
O          -6.58074220578910    2.16204002356994    1.02808272803555
C          -5.67206826351313   -0.03133762844880    1.52055338607662
C          -4.34726054977541    0.15686295885193    1.19270996674080
C          -3.69109030332050    1.40879936690079    1.13251051170201
S          -2.42203909240264    1.68695169607967   -0.03311909150266
C          -2.26935168690207    3.31696536962627    0.47638693672986
C          -3.10058469997618    3.64539926280525    1.50716483027393
C          -3.15494994239745    4.98355468062027    2.16258948137385
C          -3.89922651215959    2.54841097310382    1.91447144356073
C          -4.80898031416589    2.51665310341716    3.03559075306802
C          -4.86435043522833    1.44171377998147    3.84796341785935
C          -5.98218694595101    1.04991643106526    4.63830539780996
C          -6.03404758164347   -0.17473113923467    5.21003235732650
C          -7.23261880530353   -0.82219642276501    5.64293118191591
C          -7.28700494116962   -2.02948242023468    6.23226978419013
C          -6.08233468232675   -2.78555159045615    6.70189887290226
C          -8.60605638031614   -2.73467796597238    6.42939595575675
N          -8.51101713143360   -4.11039434629789    6.01102359986298
C          -8.67394358092623   -5.15376584787772    6.82862786046357
C          -8.38640086757438   -6.44879596894286    6.49658022893572
C          -8.61513975480058   -7.51497712019284    7.37148769796679
C          -8.33003716984378   -8.83496319322045    7.11152933006747
C          -8.53833319025273   -9.93292276211311    7.97387597866978
C          -8.15693122063843  -11.13535224609884    7.45512391784187
C          -7.62588286770850  -11.05188839625216    6.15038903769737
S          -7.62399739800036   -9.39591736795272    5.59920690872037
C          -7.15659300263220  -12.08855224613353    5.36013472836941
C          -7.10056270852769  -13.45948116466061    5.68060305614839
C          -6.58671593843970  -14.23715079564032    4.68475208891011
C          -6.21106059831731  -13.51941978184887    3.52467138886713
S          -6.52977804576384  -11.81498761432633    3.74517191707686
C          -5.67571329890929  -14.05593318174121    2.37577022074635
C          -5.32772071601467  -13.27866219322640    1.25700587691123
O          -5.51786449306767  -11.94999381165344    1.32769196491619
C          -5.12201744099222  -11.38368278715689    0.16578489630738
C          -4.65835099178577  -12.37301632045681   -0.70051881328281
C          -4.78834206970189  -13.60295757616133   -0.00287560767371
C          -4.45744561415655  -14.96986727097501   -0.46974518772660
F          -4.73334953138280  -15.92890838436637    0.42428392717261
F          -5.12826824487415  -15.32961867722109   -1.58890420375643
F          -3.14815974148383  -15.13564355954892   -0.77017181202958
O          -4.22141606310922  -12.02660044901316   -1.92574718300660
C          -3.63474543290127  -12.97778840432927   -2.79015384204151
C          -5.20708901081063   -9.97043303516251   -0.03693662363250
C          -5.66858801172233   -9.11289815282046    0.87470259353483
H          -9.38501520836388    1.96900641744261    1.62576299113459
H          -8.61744501574035   -2.83188303768115    2.81703522188607
H         -12.04142542262560    1.46306417682785    2.38545233222924
H          -3.74934361990520   -0.70731307944103    0.92763949814057
H          -1.56149851370059    3.95425241285167   -0.01741101676760
H          -2.43648450665343    5.66244100338789    1.71140389177510
H          -2.93710704886422    4.89103922655345    3.22577746420322
H          -4.15341054702562    5.40636301064574    2.05936013508232
H          -5.50968599216834    3.33453761020773    3.13340732354179
H          -4.06613130885539    0.71053207151217    3.77794044337110
H          -6.85713700600125    1.68689988974140    4.62893091175335
H          -5.12593711350837   -0.76272787579226    5.23423855478186
H          -8.15939034283326   -0.31621469661195    5.39851817234820
H          -5.30942104425840   -2.11004754565888    7.05748325720813
H          -5.66293868563680   -3.38887766665372    5.89567736602674
H          -6.35276501686484   -3.46160644259888    7.51043950498012
H          -9.38690703360977   -2.22817863776220    5.84863614253883
H          -8.89979439216258   -2.70975779608975    7.48515745014146
H          -8.02677322102583   -4.27926080773422    5.12750886592655
H          -9.09289006937232   -4.93036532296048    7.80350199526393
H          -7.95902471497943   -6.66161578852403    5.52702656564557
H          -9.04807059335679   -7.29428400771372    8.33977755621320
H          -8.96419254217579   -9.80282603169273    8.95364808523485
H          -8.24424843486682  -12.07276464903046    7.97395285209484
H          -7.43678547898422  -13.84013685611512    6.62850046664712
H          -6.46544888011839  -15.30412491265630    4.74337747279760
H          -5.52210967678480  -15.12025322492333    2.34186979505146
H          -3.33583646366018  -12.41081174551563   -3.67058179480587
H          -4.34706137546214  -13.74918756398731   -3.08917078079150
H          -2.75076397673784  -13.43782347841382   -2.34352550872041
H          -4.85924484848413   -9.64279046137534   -1.00563781836038
H          -6.01262038307251   -9.45270355389542    1.83654277827055
H          -5.71049774463406   -8.05625586626080    0.68136903483375
