88
 SCF done       -174.994451193061          0.000994086306
C         -13.07248871917836   -0.54300968975435   -4.60428440577576
C         -12.53270653575525   -1.38383369067326   -5.54349823737242
C         -13.26352293573731   -2.37276783857998   -6.23609253559551
N         -13.79931702279716   -3.18714403081622   -6.84168749808438
C         -11.18511552028577   -1.38910283204003   -5.95657957917239
N         -10.09975785357500   -1.44718820237558   -6.32943204910732
C         -14.45614768716219   -0.56891489989665   -4.14619352935987
C         -14.62918239168400    0.42944593080320   -3.15582330829971
C         -15.82720065166979    0.64871375669803   -2.52153933546716
C         -16.91007044502601   -0.16258428673477   -2.87714574112128
C         -16.73026215846173   -1.15739167087756   -3.86842375039034
C         -15.51859170287453   -1.37497661542638   -4.51230238966817
S         -18.19566936006994   -2.04496750766275   -4.15576221479523
C         -19.01815536409812   -1.08340075464077   -2.95647793660211
C         -18.23721930700185   -0.14431649864956   -2.36988309245386
Br        -20.82831457028261   -1.40835070193288   -2.59357295938509
C         -13.35608546269995    1.13764842742069   -2.95287201871465
O         -13.16409376286503    2.10999172625767   -2.24586739131926
C         -12.38253901550566    0.48869376336909   -3.84767493863930
C         -11.08599666469019    0.87792985416733   -4.04988446564958
N         -10.31598975303791    1.69889241697751   -3.30726061205827
C         -10.35826218230338    2.03399939628071   -1.98024642774397
S         -11.21871049582620    1.11256188850012   -0.80161737506019
C         -10.46932923999926    2.03454097511963    0.45116217662532
N         -10.81894217853091    1.73049656995687    1.77351380094744
O         -10.29644166415938    2.37351287769288    2.66260191793070
O         -11.61957586942492    0.82479934044418    1.92916737270493
C          -9.60940256800280    2.99594998037053   -0.01274810727486
C          -9.53409646562865    3.01660350819570   -1.41625590041052
C          -8.67960113435745    3.93283233517315   -2.13176710687377
C          -8.83650813361346    4.38522342512505   -3.39007530580531
C          -7.88921213661168    5.28161578222135   -3.99250320091899
C          -7.94204517098229    5.82386306557070   -5.21825868524461
C          -9.01105778353758    5.60693104238508   -6.23706295810706
C          -6.82681131254186    6.73062391785763   -5.68426343066918
N          -5.98358297123529    6.05382167370288   -6.64316078853936
C          -5.82674616653395    6.43336513466631   -7.91646153798711
C          -4.99269435063457    5.85831500847862   -8.81871128946818
C          -4.83817079672552    6.39956405643140  -10.11597394680485
S          -3.57016102710735    5.77742027872941  -11.20947393599485
C          -4.02214726142700    6.96959699663232  -12.33702328641316
C          -5.06080985038918    7.74718752412494  -11.85862736077848
N          -5.49893141038714    7.38422538029423  -10.62193629397823
C          -5.65598027335334    8.80254033962080  -12.60700284368289
C          -6.66851916830593    9.62812929603926  -12.23042667938285
C          -7.44835346018206   10.36138058851496  -13.26164263331141
O          -7.13006780148472   10.57014077387567  -14.40933427571274
C          -8.72225640271493   10.71702709038338  -12.59704698828109
C          -9.82662003464572   11.31835413311846  -13.12717679728699
C         -10.95134116742901   11.54216609521990  -12.30113261235836
C         -10.90894072041758   11.13588282058167  -10.93563090534165
C         -12.03645709472490   11.35958582555795  -10.12003693443371
C         -13.15117270172760   11.95993890544746  -10.63402445650498
C         -13.19113958264350   12.36314067244959  -11.98351204328215
C         -12.11469666053600   12.15922118673422  -12.80059455739329
F         -14.29788993111491   12.94938502818232  -12.46055139619912
F         -14.22118997920344   12.17052828595861   -9.85480499516964
C          -9.74714705513336   10.52472818492381  -10.41137974857395
C          -8.66899655647620   10.31902810309948  -11.23002467575847
C          -7.33983484701129    9.78212295572348  -10.95848295324419
C          -6.76737987450035    9.65065236362420   -9.72224911662087
C          -5.37009008260651    9.55673906428430   -9.51947307324943
N          -4.25295959050954    9.64232078768122   -9.26780747778459
C          -7.48301265665383    9.63575603129543   -8.51424205000411
N          -8.01322635495702    9.50191823788509   -7.50177281752788
H         -15.92434826995370    1.41576412093024   -1.76957202618750
H         -15.43478082564164   -2.14527160092993   -5.26030036177743
H         -18.58190187267420    0.53305944927732   -1.61011470758802
H         -10.57767322358771    0.51680382680770   -4.93510100549288
H          -9.47868664652324    2.04955284483358   -3.76557937953235
H          -9.07639278215761    3.66501552441807    0.63805319831246
H          -7.84572712050739    4.30637938560706   -1.55110317460983
H          -9.71344788844368    4.12175874599577   -3.96322355135764
H          -7.04554099835800    5.53565372933079   -3.36172673681030
H          -9.75221319103481    4.87943562079548   -5.92349180421448
H          -8.56628564310973    5.27434105238237   -7.17515764907866
H          -9.51581160852844    6.55253185054069   -6.43534108004219
H          -6.21860117698907    7.04997557863249   -4.83095635290148
H          -7.24480677936973    7.61957029576754   -6.16471647659013
H          -5.44824053742781    5.26706947149813   -6.30650151824583
H          -6.41995345167398    7.28134646290943   -8.22386662521999
H          -4.37329161155473    5.01553250093657   -8.55347617481967
H          -3.52491520499703    7.05470768939966  -13.28214926377867
H          -5.32582222372845    8.89530710104465  -13.63506127115567
H          -9.84250358274592   11.62172043791477  -14.16291018367374
H         -12.02254935722201   11.06045299995883   -9.08359350230839
H         -12.16054171443319   12.47359327208118  -13.83148701789186
H          -9.73837523574699   10.22722605289763   -9.37428364726786
