113
 SCF done       -205.292320969017          0.000641509957
C          -4.11152319594490   -1.92991252208551   -1.78638236817611
C          -2.74404595544839   -2.00713407207818   -1.75877623839801
C          -2.00741447320077   -3.12972872135699   -2.19190490624000
N          -1.35398431696296   -4.00940621859047   -2.53361617389013
C          -1.88030671069212   -1.00344428914964   -1.27023676346544
N          -1.10860145684846   -0.24849216540286   -0.87871058503969
C          -5.01296792742194   -2.99488906032494   -2.20174342561555
C          -6.34391580051901   -2.58834587451384   -1.94232726793336
C          -7.42944022098570   -3.38083933747531   -2.22708598147369
C          -7.18967198052564   -4.63620063537281   -2.79490582577558
C          -5.85556250225638   -5.03310949730334   -3.05397613747791
C          -4.75844266538497   -4.23171814465877   -2.76638828127069
S          -5.78664254181064   -6.61734178513482   -3.76469307796523
C          -7.52588054914879   -6.72457427019932   -3.70281708518913
C          -8.12953917697203   -5.63168353910676   -3.17823531384868
Br         -8.38016690353549   -8.26804895095165   -4.33929339710477
C          -6.34733940124740   -1.23285980722197   -1.35363350072326
O          -7.32933915244077   -0.60178490716630   -1.03262671236160
C          -4.92148199664655   -0.81003258594586   -1.32874772793413
C          -4.45517064545866    0.45389176958972   -1.14152837419761
C          -5.13967737924668    1.60735266222325   -0.62889149979196
C          -4.72956454196510    2.87008922232975   -1.09803588532315
C          -5.35278285613101    3.99868534659468   -0.63561872986804
C          -6.36547417924647    3.90700603153957    0.33964538262468
C          -6.74424720778537    2.66936778214769    0.84349708208674
C          -6.13756581741492    1.53124019348816    0.35382189403943
C          -6.82479636322232    5.24162247950358    0.64904544084021
C          -6.10606563379943    6.15721395546403   -0.14213025383048
C          -5.10770480836649    5.43870482462554   -1.01808121917463
C          -3.66526001884019    5.86973739894656   -0.69121504726749
C          -3.30102966123908    5.65840267767531    0.77341475519947
C          -5.39381377334063    5.67780888464569   -2.51239028522341
C          -6.80834021201915    5.27815594732394   -2.91506616841774
C          -6.35778369582930    7.50204520475960   -0.05276169348023
C          -7.32896324928865    7.97545919822495    0.84791975204271
C          -8.03143408764698    7.04845173329215    1.63537695574908
C          -7.79129537923792    5.69422830028505    1.53944855509651
C          -7.55878501372908    9.39391986322352    0.90595246195110
C          -8.31616552986080   10.04726189300336    1.81711215115959
C          -8.51907106993205   11.45791926058296    1.85065597068862
C          -9.27692220117901   12.02816714137662    2.90388541025651
C          -9.53640671380817   13.44265068627622    3.00412321901581
N         -10.02705055288912   13.94629139308200    4.14093144970074
C         -10.44530047127656   13.13450960673999    5.07887231378623
C         -10.41391087571862   11.71359247891916    4.87091616192685
N          -9.78757588519540   11.20943703002417    3.83948515666358
C         -11.01583734746039   10.84101361079619    5.81027394000935
N         -11.51354632544950   10.16138954250576    6.58699013479268
C         -10.90363944057819   13.67079620777715    6.30500057432562
N         -11.29681971548596   14.07402783856093    7.30313325077875
C          -9.20354050952336   14.32368272758389    1.94709799915092
C          -8.38954652110811   13.77523182315817    0.93373465562806
C          -8.03753907102381   12.37570736792506    0.88698729695306
N          -7.26753873741146   12.11189799825024   -0.17147267516913
S          -7.01401532413476   13.46089753671557   -1.00398474290273
N          -7.86888296202511   14.46197936344356   -0.08186242059776
C          -9.65065271431887   15.66207899886806    1.88425175952613
S          -8.87851914797389   16.81870152527168    0.85413085985358
C          -9.92125938478813   18.11714838085993    1.34902391610156
C         -10.90681817362242   17.64288871898788    2.21848977158417
C         -10.74337521581616   16.24806211513645    2.54314953188041
N         -11.61233731507085   15.59250731785480    3.32120731068254
C         -12.59041709975881   16.29029126633125    3.83173951198702
N         -12.88639188157321   17.55813043577459    3.54844358359348
C         -12.10268718226440   18.21797899593604    2.71888277641064
C         -12.59790386093170   19.47205309659864    2.26650689103206
N         -13.04869948110037   20.45510228137477    1.88816302617462
C          -9.66028755073251   19.44064572570712    0.89636447316465
C          -8.99414741004840   19.77024707890960   -0.28747120614230
C          -8.91569881380963   21.17916685183011   -0.38328930818106
C          -8.38804297577161   22.00697020580197   -1.35710751954140
C          -8.47436370347438   23.38580995847465   -1.14925156784757
C          -8.05317716430794   24.46813806757962   -1.92718217281644
C          -8.38571218240262   25.67622591424381   -1.25944593575564
C          -9.01426282783692   25.34506651781236   -0.06286033234239
C          -9.08927239862058   23.92763226767806    0.04512310942115
C          -9.61074795517112   23.10832422954407    1.01856291630394
C          -9.53122198803961   21.72133372260466    0.80918385210306
C          -9.97185948004164   20.65198409878089    1.58052384853033
C          -8.13380081447466   27.02355138882623   -1.71352480242324
C          -7.53103850584334   27.35623588008442   -2.85148389192717
H          -8.43204574858240   -3.04236575171473   -2.01747620287544
H          -3.76204344464011   -4.57544840612605   -2.98835943567512
H          -9.19348437623339   -5.52948227987785   -3.06640401785393
H          -3.43687238161851    0.65143664896314   -1.45860560818101
H          -3.94520978666151    2.93063896803814   -1.83902546666179
H          -7.50201928924055    2.59516004839210    1.60828497718640
H          -6.41033402629985    0.57007972770643    0.75575202622745
H          -3.55178605555240    6.92593500630335   -0.94407932398195
H          -2.97878738288052    5.29995255270943   -1.32066255337480
H          -3.96015670552700    6.23211565304140    1.42135668185180
H          -2.27771414530973    5.97920178907007    0.95290138774323
H          -3.38311553212389    4.60794895933406    1.04345478661448
H          -4.67336218761404    5.10689549999688   -3.10185951360095
H          -5.23990078813661    6.73635723941624   -2.73180948610721
H          -6.98092401684615    4.22164188383448   -2.72181718358554
H          -6.96083161348633    5.46266003734239   -3.97592754813974
H          -7.54410858512013    5.85286547931414   -2.35686016241351
H          -5.81394822053684    8.21067780074069   -0.66091172564718
H          -8.78579132795032    7.40098391103719    2.32102882660725
H          -8.34757761648378    4.99639868439949    2.14697279014218
H          -7.05363881857046    9.98158122631060    0.15153957135097
H          -8.81222748178508    9.51285856874420    2.61443041979609
H         -13.26410202793693   15.78403035696431    4.50883737943173
H          -8.63009609396316   19.06573583606563   -1.01268435627445
H          -7.92357419495847   21.60598432456758   -2.24700381713368
H          -7.55967514701067   24.39507724480335   -2.87891304768880
H          -9.38587928882875   26.04169154378677    0.66651478261114
H         -10.07743687297361   23.50397722579032    1.90895600844948
H         -10.42067375234063   20.72347966912701    2.55310089226378
H          -8.47975187578278   27.80097099067920   -1.04397840812564
H          -7.17000638611266   26.61959845229449   -3.54852264126757
H          -7.37740890371184   28.38517548777602   -3.12598263601221
