106
 SCF done       -191.833147446576          0.000457816594
C          -2.11083213371373   -1.00185126098408    0.25560067573355
C          -2.63743190859827   -2.25968579380384    0.11592639778528
C          -1.86366047771093   -3.43648643462410    0.05173276141008
N          -1.28249934539513   -4.42519596822714   -0.00210868925994
C          -4.01225471088459   -2.54402855147225   -0.02732973219067
N          -5.10609839235053   -2.85680496231814   -0.18121138453745
C          -0.69222520653094   -0.66704383844769    0.27662450717310
C          -0.55936166088998    0.74273978082574    0.29216328310964
C           0.66189594529347    1.37100521021629    0.30413287995328
C           1.80860402757018    0.57002740387668    0.29414811514318
C           1.66619725578753   -0.83774938820216    0.28405795274958
C           0.43079564643462   -1.47356929329902    0.27640569217882
S           3.21003912601034   -1.63592206935446    0.28350984510084
C           4.01384017932483   -0.08863105774308    0.29279428604556
C           3.17252896439041    0.97216518884106    0.29767547654861
Br          5.88813455947248   -0.01896432908491    0.29549732733248
C          -1.89780019277558    1.36662198232204    0.32373232282987
O          -2.12888283912877    2.54914134427771    0.46108463641777
C          -2.86137429732992    0.23707790790533    0.30272221462161
C          -4.20309341694178    0.36236288278313    0.50691928818362
C          -4.93813162333687    1.57505341469803    0.36894288819586
C          -6.03241788381519    1.85162639163551    1.21693712385221
C          -6.71462302975232    3.12150852721577    1.18373971009383
N          -7.75254646319702    3.33786961206110    2.00923278996384
C          -8.09993483521048    2.40478222725940    2.86133575239737
C          -7.38578450717571    1.16389472891042    2.92856216399894
N          -6.38866451391182    0.91723195164241    2.11507969839663
C          -7.76829530734350    0.18454108688531    3.87888337195787
N          -8.10456236320031   -0.57372392358635    4.66907089807278
C          -9.20475879697334    2.63530590457648    3.71808625295217
N         -10.08738934191153    2.79744303596036    4.43039058495063
C          -6.34652395836060    4.14543761454037    0.28127577670145
C          -5.36049343712637    3.80542970887724   -0.66401118508757
C          -4.66063918876182    2.54063147779725   -0.61827541843465
N          -3.78483464430100    2.41993377080458   -1.61412248317672
S          -3.78852010188245    3.76985356779697   -2.47731166228759
N          -4.91829779645683    4.57035988189187   -1.66877198855798
C          -6.91592422001445    5.47741331129669    0.34316903291315
C          -7.12843301197096    6.20369182237541   -0.83930291645246
C          -7.59785139397422    7.49092485431872   -0.76759497670005
C          -7.90019971888818    8.06884679977519    0.48028885205291
C          -7.70644670564749    7.35319250999951    1.65413439245440
C          -7.21144526295396    6.06886929772063    1.57902883362942
C          -8.41993033541045    9.39770584530324    0.26126610319700
C          -8.45408565440568    9.64261348941231   -1.12323022804666
C          -7.87712692993340    8.46807493753036   -1.88688032227480
C          -6.56895155845119    8.95569229299354   -2.55398346818671
C          -5.73478500279341    7.88669006639429   -3.24852841621506
C          -8.86506899359433    7.90305261099361   -2.91762447570369
C         -10.20797130143660    7.54010181117797   -2.29360735738459
C          -8.92664387197444   10.83484588504177   -1.61185892897404
C          -9.37525861817298   11.82246714510381   -0.71971200427753
C          -9.31409734291606   11.56753799861240    0.65906981451622
C          -8.85081981446692   10.36829852164671    1.15603977470516
C          -9.89056552123354   13.09450900869341   -1.15939604231202
C         -10.23603145292871   13.42550550802332   -2.42075933529759
C         -10.70726048247863   14.72155305372524   -2.78847513138929
O         -10.58679140855120   15.74932930206794   -1.90605995769559
C         -11.00891578538828   16.86710952846018   -2.50894556402640
C         -11.42256568026542   16.61418354309250   -3.77735586371500
C         -11.24775574370836   15.21632890363337   -3.97439905270902
N         -11.59412483999344   14.56115622007354   -5.13080091321296
C         -11.88810217410121   13.25024325019215   -5.28066338129330
C         -12.21683308739817   12.68553476329401   -6.47653101754675
C         -12.57490734450772   11.33382239634094   -6.71822663340313
C         -12.87970627668115   11.06082666669189   -8.01284046655880
C         -12.78008323122548   12.17459175342479   -8.88506701354238
S         -12.27476581500490   13.59667706258260   -7.99308040662096
C         -13.02449471762433   12.21874451210439  -10.23616452490367
C         -13.43704783538212   11.14784002751175  -11.07618286951502
C         -13.60164369759070   11.48851970255296  -12.37360622459785
C         -13.32996684426104   12.86657242711710  -12.66598651877658
S         -12.85322815277146   13.69238908545411  -11.17428307880667
C         -13.40570083098708   13.48643722672092  -13.85161856335294
H           0.73109836662596    2.44748524448468    0.31864399452294
H           0.37375759484897   -2.54928629987851    0.27660651387662
H           3.49799922385237    1.99644053276294    0.30467611216155
H          -4.77630265897135   -0.48808031947487    0.85417715811224
H          -6.94413795085284    5.72463232823300   -1.78616281310443
H          -7.93104808671512    7.79574014277962    2.61272684214804
H          -7.02422914497849    5.51699426865028    2.48602370141832
H          -5.95799791934072    9.42894844307894   -1.78079775191325
H          -6.83550278457833    9.72803866447317   -3.27985649236079
H          -5.38064939648029    7.14264640661427   -2.54116903328108
H          -4.86739596658988    8.35572806327429   -3.70866426167476
H          -6.30079650953596    7.38899992064759   -4.03156956456398
H          -8.43281031400268    7.01146769116242   -3.37284130066346
H          -9.01621536495554    8.64436504056019   -3.70584889184629
H         -10.07666308189211    6.79493568889607   -1.51231729402405
H         -10.87589206560927    7.13178346554137   -3.04892205277474
H         -10.67933329316768    8.41619259094824   -1.85307509175589
H          -8.94156531519652   11.02035651228012   -2.67523562055849
H          -9.65081123698329   12.33383636621346    1.34246930201368
H          -8.81978832044160   10.18942417086510    2.22015896470986
H         -10.03463140073926   13.83721306308749   -0.38592327042132
H         -10.14303196462015   12.71305965467781   -3.22587658642928
H         -10.97142737326622   17.77494094142590   -1.94038037214668
H         -11.81082711308903   17.31437660685360   -4.48778782958752
H         -11.74192808018827   15.14834095643464   -5.94307816001713
H         -11.88748444411017   12.64476542645055   -4.38774805008804
H         -12.59806701952595   10.61270346069543   -5.92040505673277
H         -13.17581314098033   10.09201931039256   -8.37200312056320
H         -13.59790144766413   10.15923849001677  -10.68391742251470
H         -13.90919788797106   10.81420888851647  -13.15295427431512
H         -13.69943827577724   12.94657685045454  -14.73433442904502
H         -13.17758029747388   14.53079655494446  -13.96044712886590
