119
 SCF done       -210.747089271390          0.000595131884
C          -5.77583717771991    4.27724383535327   -5.17144179722189
C          -5.91197896853799    5.61407238729920   -5.43965831052507
C          -5.14685553060717    6.30912284428897   -6.40063484152323
N          -4.56624159037495    6.95436508700065   -7.15249470845007
C          -6.76387344375248    6.53730860334563   -4.79950310613238
N          -7.40582610614044    7.38390268446943   -4.36189782356989
C          -4.80341719706192    3.41809030293586   -5.83240290480170
C          -4.81898469032217    2.15684156845891   -5.19762663778234
C          -3.97886989096472    1.12972806007630   -5.55329721406117
C          -3.07686080821747    1.35933539858992   -6.59637847357973
C          -3.08338640496704    2.61783516234184   -7.24518430761088
C          -3.93434892950863    3.65360641501107   -6.88195534944258
S          -1.88656266837622    2.69573121097759   -8.49977174587521
C          -1.39251325669428    1.06551787902800   -8.13590099363002
C          -2.09254884180955    0.48581897330372   -7.13184838939940
Br         -0.00911625545490    0.27942544352837   -9.12269511902004
C          -5.82662992488415    2.15562225588071   -4.12429421835523
O          -6.01983553858685    1.21680901840069   -3.37621893969229
C          -6.48452981409016    3.48422985763194   -4.16843863272333
C          -7.59991608346504    3.95726206954063   -3.52635621689353
C          -8.47178021159574    3.37210395854936   -2.55991370622331
C          -8.11616609033867    2.24066706436102   -1.85592188667572
S          -9.26369016546802    1.67561614415086   -0.74784910491910
C         -10.32635543130753    2.98182914389574   -1.18490025695372
C          -9.79948053905922    3.84199696621322   -2.16008588455088
C         -10.62885588057975    4.90688476216516   -2.60104205522342
C         -10.13600615967305    5.85718876393387   -3.65856250573489
C         -10.17604342571968    5.22649419189505   -5.05298328153432
C         -11.91304710012057    5.07230399875999   -2.08383962906593
C         -12.83253028162573    6.13386907176575   -2.63239395506164
C         -12.66375750849002    7.47074078220042   -1.90372228747595
C         -12.39859983812743    4.23560972812637   -1.05164308329069
C         -13.65707136244166    4.21371461415296   -0.33100516471254
C         -13.71400137540356    3.14905791154563    0.52637693663789
S         -12.33125177144083    2.13774640780232    0.53396401045741
C         -11.58361193689971    3.17009485234750   -0.64220042884657
C         -14.74969526366952    5.16325052853681   -0.38421818644229
C         -16.01144456634718    4.85628368452853   -0.03019535864306
C         -17.11421229147111    5.77131752641274   -0.01483430445119
S         -17.22769665442584    7.07954625741327   -1.13860445093813
C         -18.76642882533595    7.53046505386579   -0.50545775404040
C         -19.17835130954605    6.75213477185629    0.52583744932790
C         -20.46961779345447    6.96436046910326    1.24053196897014
C         -18.22218303331643    5.73215322696142    0.84121042056761
C         -18.17090356683123    4.86106069049306    1.96577158654965
C         -19.01466752905471    4.61932967869064    3.00690790933267
C         -18.56930260296038    3.81590900523194    4.09599834445407
C         -17.23290749235857    3.71526284684746    4.37397437491484
C         -16.53431962442481    2.81501466372135    5.18469091655131
C         -15.15719941345310    2.75666431416734    5.09859363864808
C         -14.25410288718192    1.81239240102392    5.63049620230480
C         -12.96889371672311    1.94420916030624    5.17922779391216
C         -12.78161724051026    3.02115555471839    4.29291104809059
S         -14.27898930323155    3.88156698065832    4.06183526406744
C         -11.65541143569415    3.40848127310807    3.58284458329889
C         -11.55653291895230    4.53513599600326    2.74482934870912
C         -10.37134017490697    4.62477411264743    2.07283606806840
C          -9.48394763486424    3.56210538493613    2.34294833244407
S         -10.18216558683977    2.47075256634886    3.51377437663788
C          -8.24461579708838    3.28744111375472    1.77839989220128
C          -7.62337453657767    4.14932034001485    0.88924303239390
C          -6.47043763947382    4.03450875921705    0.13085521683036
C          -6.22508322667929    5.15059346652950   -0.80934277192990
O          -6.91384731975316    6.14341687401643   -0.94479830004033
C          -5.03300743164593    4.78167299487399   -1.58912015457306
C          -4.38300976221554    5.49065454226159   -2.55577514423668
C          -3.31407904525695    4.88273305520509   -3.25280506188438
C          -2.95970941072737    3.54121027870130   -2.93346012988199
C          -1.94402014429485    2.91004674236060   -3.67696329566239
C          -1.32440299445280    3.59660316998945   -4.68237382596872
C          -1.63983554185637    4.92475926105524   -4.99495752494572
C          -2.61905097402277    5.55497175631251   -4.27840868343318
F          -0.37976583339284    2.97632135473588   -5.42095518162241
C          -3.61961482648758    2.85328721917559   -1.88700191321029
C          -4.63056184206203    3.47288022934855   -1.20483661443763
C          -5.44369847847328    3.04641402756450   -0.05589428639326
C          -5.12121980751118    1.94748175507409    0.70854472010426
C          -5.66416658366047    1.57583246595701    1.95085675261773
N          -6.00306650592338    1.20702398281761    2.98585488971024
C          -4.08522861230453    1.04348562550354    0.39410932770554
N          -3.26883130256473    0.25527637515989    0.21385533634117
H          -4.01266777493278    0.18375622127206   -5.03589008223444
H          -3.89633262487610    4.59032870561896   -7.41096196784868
H          -1.91740498535844   -0.51351221028109   -6.77761793113216
H          -7.87717059251872    4.95308083956291   -3.82679485273008
H          -7.20258580738404    1.69080970809596   -1.96583554716284
H          -9.13408396397314    6.19527952906734   -3.39837759409703
H         -10.73817471416509    6.76034141394635   -3.67876598627053
H          -9.65702999861385    4.27061365812149   -5.07990600140175
H          -9.71521179894534    5.89459027685106   -5.77703987724923
H         -11.20718870591129    5.05081198198245   -5.35370272570367
H         -13.86067137037387    5.78381217281920   -2.53912258004597
H         -12.65538909190365    6.27703838105521   -3.69760720776391
H         -12.75141589943742    7.34179995412685   -0.82699375417674
H         -13.42079804580874    8.17838982124736   -2.23506247089058
H         -11.68347285986663    7.89791121956893   -2.09953371314140
H         -14.50620771550424    2.91536041383716    1.21001399454024
H         -14.53480582029126    6.18185457235646   -0.66203499048087
H         -16.24541490443654    3.84186477781829    0.26365937217252
H         -19.27864820686306    8.36656765191364   -0.93962732413969
H         -21.01567521840246    7.78991601339418    0.79081420912561
H         -20.28686491528841    7.19683333052218    2.28888418894748
H         -21.08598347037596    6.06820491673057    1.18631102758139
H         -17.23779646430780    4.31731892051592    2.00448954625733
H         -20.03282889161510    4.97427551991667    3.01836370211965
H         -19.30075042154228    3.29111662413021    4.69471873087884
H         -16.58680493783515    4.39627782401568    3.83287879661807
H         -17.05336167316915    2.09833696389180    5.80486156486822
H         -14.58120123525529    1.04203946759710    6.30652163480038
H         -12.15265113617337    1.29804529356628    5.45062139031870
H         -12.36587084222350    5.23933748724481    2.65402776588998
H         -10.13572944549808    5.41170038018888    1.37981063655853
H          -7.78034863351072    2.35876889177581    2.06271925515168
H          -8.13190533410090    5.08823986504679    0.68921208513905
H          -4.68921624614658    6.49905166864737   -2.79380433866403
H          -1.66394196247450    1.89229812669247   -3.45437769834861
H          -1.10985474879691    5.42153024732067   -5.79186090401438
H          -2.88122181497464    6.57823396073558   -4.50268766925165
H          -3.30929703524594    1.84540644753908   -1.66742651982202
