91
 SCF done       -155.722586366463          0.000679118394
C          -6.06470908166519   -7.44894505030929   -1.63976331635554
C          -5.91100363416671   -7.71385856050678   -0.29560688985560
C          -5.67744971894616   -8.99878774927770    0.23167397377308
N          -5.48429546739829  -10.01512027205207    0.73244059779510
C          -5.96471921723633   -6.77571505464215    0.75182405863616
N          -6.00257500670212   -6.08947187722417    1.67582866477491
C          -6.02740312527564   -8.44951157046385   -2.69986714359158
C          -6.23754913845110   -7.80233309839688   -3.94285873351329
C          -6.26061434852251   -8.47586118862851   -5.13814524921588
C          -6.06770482649205   -9.86182146462794   -5.10935174914535
C          -5.86116759763885  -10.50137945829347   -3.86507882445773
C          -5.83709060288399   -9.81864887999781   -2.65516687155154
S          -5.64769832324899  -12.21628530246154   -4.05673788709939
C          -5.83547866566676  -12.05012183090990   -5.78269192370764
C          -6.04760344547178  -10.77852125950054   -6.19594612786775
Br         -5.73527020933695  -13.57189251346346   -6.87574129857475
C          -6.41680688977493   -6.35614046046011   -3.70868532399961
O          -6.61937384811118   -5.51041315099367   -4.56171579020316
C          -6.30044253173952   -6.16426891449306   -2.26081232030965
C          -6.39344391668473   -4.97327271447857   -1.58058837960935
C          -6.62669387657843   -3.66782175598030   -2.02313033835168
S          -6.79643460598409   -3.17632073325289   -3.68877158260015
C          -6.93709124074395   -1.54482105441141   -3.20494193840391
C          -6.85411418656444   -1.33648950623686   -1.85537649320752
C          -7.00017525886722    0.01810808241846   -1.24336115408799
C          -6.68132249669382   -2.55347502355206   -1.15097406846945
C          -6.61546708078231   -2.70653056641041    0.27493826651619
C          -6.12737024182378   -1.82489596544768    1.17346037258782
C          -6.07991002081869   -2.13185809314102    2.56720559018574
C          -5.56399368819377   -1.29656375368444    3.49156645436533
C          -5.44848678604101   -1.53717212671414    4.90601375338023
C          -5.27435549897564   -2.70556842491861    5.54200021119339
C          -5.13093303969205   -4.04141412517013    4.88819298528996
C          -5.15125325203976   -2.72062443551052    7.05016615204950
N          -5.99231297430204   -3.71910093678747    7.66690730437614
C          -7.33354480294139   -3.73065379100553    7.54236780855673
C          -8.13624745962330   -4.69666864691327    8.06562026423209
C          -9.53632452193376   -4.69060020293425    7.95401031275201
C         -10.36550782132178   -5.61824755831876    8.53065324125102
C         -11.77588491529439   -5.68163025520235    8.45428489516910
C         -12.33436977373215   -6.70811799866448    9.15598416911006
C         -11.39683133262147   -7.51639662133177    9.83387495379242
S          -9.77295824374020   -6.93842889051383    9.53804891942520
C         -11.64570490390307   -8.60962690604802   10.64289719455155
C         -12.88153551686865   -9.19387905831738   10.97922940272810
C         -12.78070026159472  -10.26368550640442   11.81969989850689
C         -11.45982574030478  -10.59446423802977   12.20482228439484
S         -10.34430791684940   -9.47793913625119   11.43638100100645
C         -11.13542566174622  -11.63018900150148   13.05026934292716
C          -9.90490122552756  -12.08183788413162   13.53648729463855
S          -9.94445315567372  -13.47231212546322   14.61839904291115
C          -8.22157406352869  -13.53086696815103   14.85716878918751
C          -7.63304839925072  -12.50360605719560   14.12246733420971
C          -8.56589068994530  -11.70544997932181   13.39362895691648
N          -7.82792097650525  -10.76886638145289   12.74982787945772
N          -6.52084667870870  -10.90823571163074   13.00930396205833
C          -6.37361319678355  -11.92605027514432   13.81842330638315
C          -7.66311902435136  -14.53317283692475   15.70078925142541
C          -6.36034227995398  -14.69489719429026   15.95413506719619
H          -6.42292126690461   -7.95186681857305   -6.06701408231677
H          -5.67563292401498  -10.35417612322593   -1.73480310237202
H          -6.18452834790548  -10.49610707483728   -7.22386038034604
H          -6.25454527660399   -5.04857442058319   -0.51140582587646
H          -7.08735960064643   -0.78744699849022   -3.95108862420099
H          -7.50795122197624    0.68487818171504   -1.93656659434937
H          -6.02359887043465    0.44737357490164   -1.01957208879673
H          -7.57275708809546   -0.03906412100177   -0.31997350833436
H          -6.96779867325367   -3.65091640283345    0.67059060798275
H          -5.69769622632450   -0.88520646374399    0.86084870058269
H          -6.50202051866112   -3.08031464936301    2.86187163401237
H          -5.22573170483984   -0.31861884492442    3.16703963139657
H          -5.45309507608757   -0.63620208679669    5.51086344320481
H          -4.72741306951540   -3.94455122642651    3.88381232456219
H          -6.09345603104711   -4.54821377397543    4.81458437793852
H          -4.46980725437903   -4.67771279673597    5.47449187324915
H          -5.40847394905753   -1.73381855338296    7.45337043905589
H          -4.11617068441461   -2.93860714748408    7.32986194775917
H          -5.56021685049350   -4.53184799640385    8.07658351291952
H          -7.75432044908704   -2.88890768680493    7.00902601792570
H          -7.68530144310754   -5.51684456111092    8.60929118240641
H         -10.00052257287191   -3.90008827983562    7.37864487108746
H         -12.33574284991600   -4.96329836708278    7.88098783465447
H         -13.39080458021431   -6.90207628834287    9.20769278075334
H         -13.81132831825966   -8.81361326724993   10.59577160705636
H         -13.62128292640669  -10.82990718942446   12.18079522294169
H         -11.98658971612974  -12.19875138861777   13.40697859729881
H          -8.13707388188419  -10.03302905451459   12.13756624893903
H          -5.39664737915946  -12.20879072102600   14.15275696301196
H          -8.38488363735467  -15.20043987354736   16.15480447371565
H          -5.61251818578705  -14.05568577690351   15.52149317621942
H          -6.01398701917581  -15.47852178874290   16.60383718399747
