85
 SCF done       -183.417261328665          0.000761669855
C          -0.92865389296583    0.39383677264119   -2.15891548786205
C          -0.86876366609977   -0.10818934638739   -3.43443246943666
C           0.11917183135835   -1.00819109747679   -3.88292288206481
N           0.90347739619356   -1.73427037788020   -4.30185186529751
C          -1.80955927464418    0.17551251856941   -4.44629219434253
N          -2.55480600136564    0.34262916300511   -5.30390220968205
C          -0.05883157088018    0.02221338747394   -1.04986402653908
C          -0.53354628897023    0.65181211567187    0.12730283685071
C           0.06864649946071    0.48586092335769    1.35049673691925
C           1.19303420641757   -0.34389910873075    1.41587772364845
C           1.66394581825828   -0.96388825657565    0.23360900417637
C           1.05479058988658   -0.79465498943148   -1.00415033095208
S           3.06816655033177   -1.93906382704315    0.53947486439384
C           3.00295762554446   -1.51065386729249    2.22847677268378
C           1.98340540840277   -0.67871274078989    2.54890789803856
Br          4.28790336755248   -2.19905017149063    3.40730275135092
C          -1.71722107688894    1.47188603558706   -0.19241083153413
O          -2.31977056091002    2.19840256271176    0.57135426423501
C          -1.93077214967663    1.30538109399314   -1.65057281477702
C          -2.76644960403833    2.08388878983620   -2.41203070685631
C          -3.84833927327576    2.84813501554921   -1.94391943448171
S          -4.27400841084017    4.30773643941978   -2.78352087518974
C          -5.51642155624099    4.70041248678705   -1.63980550427937
C          -5.65239304298698    3.68755342116548   -0.66500047775432
C          -4.72088381287130    2.62835311720142   -0.86062569039878
C          -4.81021216271949    1.48210545124033   -0.05804214417852
C          -5.71876001946342    1.44489247179728    0.97327837869721
C          -5.79758017755555    0.29284067842730    1.78906632600877
N          -5.83522744121975   -0.65366544674935    2.43329709609497
C          -6.59370225608275    2.54621364857891    1.23432714108954
O          -7.41119769182754    2.39371643165397    2.28927235133879
C          -8.30990729517658    3.42966033513121    2.62142953806028
C          -6.56964606151611    3.63896894092284    0.39539423651390
C          -6.21107872761114    5.90984879003153   -1.79046744519045
S          -7.48700863258975    6.49410170617794   -0.73554169432592
C          -7.75470466423895    7.98302096890995   -1.62472992609019
C          -6.86584545608604    8.00916397284090   -2.71107314437006
C          -6.03087779682935    6.86629554499873   -2.78010364884810
O          -5.19464276582023    6.93789802504896   -3.82999754097477
C          -5.48611306394781    8.11928931032759   -4.43809666645151
N          -4.74641895249527    8.47598449015193   -5.59149281543058
O          -5.04107352711745    9.53667696357090   -6.10977163685049
O          -3.88544669260673    7.71437375184833   -5.97145967657421
C          -6.48852183492370    8.81596599816486   -3.81122849061743
C          -8.70588079009930    8.94290273641698   -1.27102641044870
S          -8.88824704000564   10.36484570480972   -2.25144792334389
C         -10.15528506656950   11.01448790341787   -1.25926358950022
C         -10.44334629255796   10.14879404632799   -0.18810041436460
C          -9.61762082363800    8.98056148225680   -0.19395462152225
C          -9.77958024123616    8.02690981073479    0.81681696559821
C         -10.73052817896902    8.20915418086540    1.79441095046246
C         -10.86592786002064    7.22275200561387    2.79635117577856
N         -10.93000090050322    6.38650197894780    3.57751401961996
C         -11.57268710157921    9.36499697374053    1.79864895473666
O         -12.46666499384757    9.41685912597086    2.79720802087911
C         -13.36812455637666   10.50340955559727    2.86356339771796
C         -11.41795158917838   10.31332227881135    0.81208409144928
C         -10.70458230976012   12.26711494102275   -1.63317444194338
S         -10.19087205799992   13.00978543530993   -3.14514227936067
C         -11.16359810139118   14.40429693977882   -2.94960276403796
C         -11.87064895594072   14.33099102017590   -1.77492873275246
C         -11.60868352117825   13.12834263481436   -1.04224411476709
O         -12.32149672605043   13.12031603840852    0.10729468596973
C         -13.02503926559650   14.28733306903075    0.11270361751074
N         -13.86142807963684   14.51768718978031    1.23178738975467
O         -14.49296822843188   15.55336010408503    1.24055710792782
O         -13.88359331673452   13.66225232580500    2.09347569519984
C         -12.80343386037299   15.06321751235055   -0.98903534479193
H          -0.31870272524855    0.97613764225915    2.22973589191205
H           1.45272178110565   -1.28434101796235   -1.87724784630043
H           1.79468420484595   -0.31529060625375    3.54249039861012
H          -2.54720452586744    2.18571209930922   -3.46857371037449
H          -4.19121206020300    0.62222644259001   -0.25725976267781
H          -8.83335198328659    3.08926705583165    3.51205126059487
H          -9.03487621966837    3.60304914617125    1.82098725839392
H          -7.78192396374158    4.36075931026980    2.84527102095554
H          -7.25660978664294    4.45422048616834    0.54254283114818
H          -6.87485269433826    9.76539659301340   -4.11886624660291
H          -9.16592820977085    7.14195805125475    0.84502153318645
H         -13.97941843127437   10.31957964581139    3.74405475510057
H         -14.00869017063857   10.54148445675951    1.97890985960447
H         -12.85146251313035   11.45888244174033    2.97481627615116
H         -12.03854076908363   11.18843356270743    0.80489567768248
H         -11.15748912097003   15.17717807019938   -3.68958151133672
H         -13.24801684530045   16.01511953323988   -1.19254841048833
