96
 SCF done       -196.109039672866          0.000807589305
C          -9.89732408442325    5.40658577868609   -7.39174111360645
C         -10.98007298438439    5.59211236222048   -6.57107410722601
C         -11.71092192729822    6.79460675962024   -6.48068613780935
N         -12.32355904638662    7.75256394693887   -6.32489245730804
C         -11.47477968326730    4.63066815275098   -5.66920802263034
N         -11.93404064429412    3.88655815525827   -4.92341676296800
C          -9.39099849573332    6.36678437663253   -8.36566197772126
C          -8.18222448128897    5.87112783456057   -8.92044127175462
C          -7.48003175049926    6.55374461562038   -9.88388297893202
C          -7.99764474331652    7.77541299331241  -10.32786535634714
C          -9.20775381661076    8.25674556653922   -9.77396943772269
C          -9.91377462459629    7.57149095992404   -8.79229303015111
S          -9.67504525320902    9.77479764170456  -10.47418598195192
C          -8.25419020292538    9.74896980985739  -11.48270145014089
C          -7.47004200172980    8.65820246986998  -11.30869815594863
Br         -7.93599763562107   11.16471193648815  -12.66912950636910
C          -7.87652660476469    4.57117906130010   -8.30483360875518
O          -6.89865198674415    3.85972816866497   -8.48936073269359
C          -8.99305548957398    4.28070090479457   -7.39681229727444
C          -9.05104471011810    3.13309336175237   -6.65285974359923
N          -8.05729921316731    2.23001305487285   -6.65861212751281
C          -7.92474246983498    1.20479070179623   -5.75471424321460
S          -7.20419832245786   -0.28526098776827   -6.27566454020685
C          -7.53436638368914   -0.97173688068215   -4.72018297489960
N          -7.12367293188532   -2.29574669384668   -4.48752226736305
O          -7.35849479724994   -2.77491409435066   -3.39719601817595
O          -6.55793836446025   -2.85850430468277   -5.40631524073108
C          -8.16064322558411   -0.10823887597478   -3.86285356797758
C          -8.36749794058477    1.16559019593581   -4.42772348293894
C          -8.92190496132525    2.28772295592934   -3.70052594920959
C          -8.50668250166687    3.55509197469937   -3.91797128424688
C          -9.18928673607991    4.72258798953219   -3.46492913782272
C          -8.97391219585561    5.97259382769934   -4.03206856183693
O          -9.81174357230353    7.03803839105807   -3.78421599813202
C         -10.89423678135950    6.76847688328824   -2.99502361164317
C         -11.07027265741318    5.50183172512864   -2.37108774169167
C         -12.19741551251622    5.43744249883914   -1.61837139566700
S         -13.06079621952877    6.92472169865166   -1.66994248756662
C         -11.89267343458433    7.64062017769932   -2.71296583288319
O         -10.18673789992703    4.47978443377840   -2.56425863625981
C          -7.94128070423063    6.25792625843115   -4.95234743682114
C          -7.84317644174915    7.43070725719829   -5.65848088513091
C          -6.81538726996772    7.66661258102340   -6.57059255085469
C          -6.69269126303345    8.79638516610758   -7.35100840839152
C          -5.67802850304886    9.06089011479821   -8.29560137751868
C          -5.81646419122662   10.25317668044376   -8.94561637462049
C          -6.95026707705872   10.98868927788412   -8.54526581453156
S          -7.83331885657446   10.12582833580834   -7.30851853233808
C          -7.36908246943527   12.22167669851146   -9.02411270297310
C          -6.74947671631865   13.01490175303908  -10.01142293567184
C          -7.40377038979174   14.18566267761551  -10.26271641048422
C          -8.56602088572629   14.37371202198648   -9.48331543633169
S          -8.81062990310890   13.00571600827742   -8.42416139234492
C          -9.37759324299427   15.49148588686358   -9.48292866141638
C         -10.50127137508525   15.63575669675802   -8.67578904805179
C         -11.26989108383425   16.76549812931118   -8.49825491172874
C         -11.03277502570092   18.14465247814678   -8.82410184958086
C          -9.81238473678805   18.76521789296712   -8.97024642897818
C          -9.65662440173584   20.13498374379807   -9.25721411805901
N          -9.46670094135077   21.23823033546360   -9.51508396439528
C          -8.56902746906952   18.14668935819805   -8.73498178437892
N          -7.52833353783861   17.71601200561968   -8.50833768171025
C         -12.31658932325925   18.84147463853230   -8.73875979659662
C         -13.27507495055590   17.95718014585621   -8.18342813857624
C         -12.64340779059569   16.63903874506649   -7.95990445262273
O         -13.14743799688076   15.65004413340636   -7.47354076107463
C         -14.56926382521658   18.33717975604982   -7.92829738435353
C         -14.93914979437435   19.64948128368778   -8.24468149984967
C         -13.97965278909263   20.51889240946945   -8.81329671903389
C         -12.66686378300066   20.13632825743364   -9.06572363897565
S         -14.64973667376620   22.08986214686957   -9.13277208095784
C         -16.18781334703189   21.56618902866975   -8.49963491869603
C         -16.20215576114744   20.28078627516854   -8.07484666081566
Br        -17.62904626019697   22.76641437962490   -8.46087268494108
H          -6.56368086529745    6.15607169144339  -10.29101640895518
H         -10.83045806295007    7.97829796349175   -8.39898509671487
H          -6.55928482049583    8.48088445477786  -11.85067954111452
H          -9.89739777801600    2.91505284234361   -6.01823736796450
H          -7.32941544762616    2.38922390223782   -7.36620515522603
H          -8.42486366473869   -0.37463809894069   -2.85540144462811
H          -9.71208385323172    2.08159610546194   -2.99505368593504
H          -7.65670981952975    3.71735936207333   -4.55913723456836
H         -12.56479334720807    4.60736795810054   -1.05271918392279
H         -12.00769599072622    8.64529633087111   -3.06165423952982
H          -7.17825946877529    5.51254812688266   -5.10691607470828
H          -8.59856270721521    8.19271438701444   -5.52335839243877
H          -6.05325647001666    6.90676468656307   -6.69117389128366
H          -4.87645832046491    8.36430904364178   -8.46572965807108
H          -5.13652690800450   10.61713989697167   -9.69431931269623
H          -5.84639000754743   12.71118834457179  -10.50872652971278
H          -7.08000158938306   14.92349297811330  -10.97404481114546
H          -9.10346212236004   16.28299156395927  -10.16545115726424
H         -10.87180029803023   14.74883297613215   -8.16956048582290
H         -15.27539978851053   17.64597859749253   -7.49550941339569
H         -11.97262760223821   20.83435555476375   -9.50321131489713
H         -17.06569595808118   19.79606924697596   -7.65724287204555
