127
 SCF done       -210.731040182178          0.000969583835
C          -2.91211982634328    0.90308519661731    3.54057816635227
C          -1.90765594979006    0.36299294942644    2.77727825266530
C          -0.93535227644736   -0.52794965425061    3.27364822408921
N          -0.12660944338798   -1.26381320165526    3.62473425059990
C          -1.66917593699262    0.68641579021297    1.42513766047115
N          -1.39143148867987    0.94692977276550    0.34147433357260
C          -3.07034820801419    0.72962740679699    4.98086384318560
C          -4.07199590870148    1.62347930303638    5.43285682491766
C          -4.44164995934394    1.71713260920243    6.75182479489950
C          -3.79690468102812    0.88063195767156    7.66971955346926
C          -2.80367870673147   -0.01469834050558    7.20808330692979
C          -2.42475628169310   -0.10392835022938    5.87363200431702
S          -2.14225153272063   -0.96060049158806    8.50746045454992
C          -3.19329950811017   -0.14888636594499    9.63766739643247
C          -3.99953701932106    0.78115708272785    9.07378444700400
Br         -3.12964294865592   -0.60846791190767   11.45537150987216
C          -4.60557804522533    2.37599032087003    4.28013826499295
O          -5.45090549669828    3.25195797499013    4.32476160414723
C          -3.92836493046860    1.83457535386922    3.09803771971859
C          -4.28061084509208    2.05588818873857    1.78822147341852
C          -5.19236883619404    2.96735742800966    1.24386662997284
S          -6.01195811216041    4.23501796342697    2.11504107803168
C          -6.70503117132749    4.86064262713625    0.65513271863678
C          -6.32688728085569    4.10470818014749   -0.45749483193719
C          -5.49696353778954    3.03950328958987   -0.12695834903248
C          -4.98431651613498    2.06993748815202   -1.14003160825075
C          -5.71752675113924    2.18353216584203   -2.47992536623931
C          -5.01230344911982    1.27011660003175   -3.49886094110528
O          -4.24043186259863    0.41986333830082   -3.15837945226221
O          -5.34695049463365    1.44259856451181   -4.77304616192496
C          -5.81924001097231    3.65972543285190   -2.88378446195388
O          -6.40340196388988    3.76727880416761   -4.17776430066972
C          -6.70253725944880    4.40438990315475   -1.87393847354525
C          -7.54485371458750    6.00225266363221    0.79045764454260
C          -8.41978311110179    6.49981272673498   -0.11102649751666
C          -9.26993688525666    7.64744766806102    0.08286982866932
C          -9.14665686410956    8.51568689526563    1.18100968644775
C         -10.01153307534080    9.57180060263442    1.31113005978019
C         -11.02418349864634    9.79801539628377    0.35970786131441
C         -11.14640382497565    8.95940882120468   -0.74032040412179
C         -10.27028634354287    7.90277466683475   -0.86865401444113
C         -11.79255356490592   10.94924687835403    0.76859596709374
C         -11.25180370069749   11.44768793806273    1.96831539281348
C         -10.07051759553470   10.61237549444746    2.40549759941659
C         -10.32364843428157    9.96488565759883    3.77988033698236
C         -11.58776099060794    9.11424813190023    3.80888224927020
C          -8.77818372336555   11.44770987539308    2.45847700267397
C          -8.45873380189378   12.12594803707200    1.13172306231827
C         -11.80643003724320   12.54075800501300    2.58220937886469
C         -12.94505043588233   13.15592700001614    2.02806637028042
C         -13.46416355849251   12.64930326865524    0.82463343072156
C         -12.89770149595469   11.56363469227001    0.19301839192314
C         -13.52601572765626   14.27095937305700    2.72118987821183
C         -14.76606183391914   14.78552950922658    2.50536117400605
C         -15.36651392863838   15.86638082824232    3.18441139636759
C         -14.82331036471581   16.75685588161547    4.07877145155751
C         -15.54794023742006   17.79983536814903    4.71161239019369
C         -14.80616912003617   18.59507492735603    5.53064671280161
C         -13.44280848135813   18.23782441158210    5.59235859861694
S         -13.14434418175249   16.83479933402517    4.58565846652725
C         -12.43304578988065   18.85867451094219    6.30216379503019
C         -12.54027126519256   19.97351718308504    7.16321239320960
C         -11.35460959802478   20.36891696336625    7.70173995232362
C         -10.23441959600534   19.59904656861859    7.29737993014500
S         -10.76962063289958   18.32665251994038    6.20820175672506
C          -8.93803451868621   19.82590935655839    7.67905610427086
C          -7.77102257166069   19.13131043715061    7.29563173441324
C          -7.61696948781544   18.02272989624975    6.45992686702032
C          -6.23656091607010   17.71196610019399    6.37001040297351
C          -5.56398001428239   16.72946007774323    5.67824788951055
C          -4.16442605603025   16.69399419585525    5.78815550355433
C          -3.21347926788484   15.85556036779865    5.22571691999194
C          -1.91175414455285   16.26099530233957    5.65842063739707
C          -2.05938141040747   17.35245667728249    6.49466101819122
C          -3.45163632370286   17.66034514364525    6.60533356620110
C          -4.11559207326458   18.63580032751544    7.29871598384709
C          -5.52269921126429   18.67526754910663    7.18943472930298
C          -6.46120698149847   19.52160654772942    7.74408807478479
C          -0.69624504867981   15.59818881260529    5.24828333788137
C           0.53562265316913   15.95140384714161    5.60500043677773
H          -5.20506535260481    2.41126061790580    7.06663592082688
H          -1.66401167787668   -0.80374867407751    5.57019763645273
H          -4.70875280146246    1.37346948417391    9.62278126913128
H          -3.79093370398536    1.43407630035857    1.04927107030126
H          -5.08456477851644    1.04533045655277   -0.77791657152726
H          -3.91490275286354    2.23678380008089   -1.30726006876980
H          -6.73824276518031    1.79168916126532   -2.38210454305930
H          -5.91040490135762    2.23339135711558   -4.88779315715425
H          -4.80872449343764    4.09515214436586   -2.89550356329282
H          -6.42706002850745    4.69374183158447   -4.43885182751344
H          -7.73866241227309    4.09848087690568   -2.05775269758320
H          -6.63043634764774    5.48159306421958   -2.05174480604639
H          -7.47695515503445    6.46688194907815    1.76517294625323
H          -8.55968351447614    5.99177109202915   -1.05333667049536
H          -8.37219658895395    8.35398528983261    1.91475777542641
H         -11.91408480170979    9.12870756043226   -1.48055928368544
H         -10.36037111617743    7.23940763717167   -1.71775580333453
H         -10.40246154015225   10.75574011441711    4.52860863070192
H          -9.46339465271587    9.34402758579071    4.03910303469669
H         -12.46164881985509    9.71743053835485    3.57235964713667
H         -11.72516483430728    8.68181229565113    4.79729641683840
H         -11.52343059533714    8.30469979689790    3.08503245773798
H          -7.95000778206527   10.79412373843523    2.74113435526340
H          -8.88584563055644   12.20650836931324    3.23629993736482
H          -8.33101872200868   11.38716074663178    0.34337140903579
H          -7.53974828115047   12.70143756261240    1.21641642393677
H          -9.26175256469643   12.80038463122263    0.84290165725348
H         -11.39507387162180   12.93004899019648    3.50275183288307
H         -14.31773494935061   13.13114311006716    0.37332412715162
H         -13.30986879474549   11.19487630753371   -0.73478135670777
H         -12.92133113852802   14.68169927545999    3.51752755126090
H         -15.39921542890233   14.31258484839633    1.76603668313722
H         -16.41377446558090   16.03671813957651    2.96411852332646
H         -16.60185763170124   17.92813279982300    4.53625054402787
H         -15.20039358487228   19.43154566812063    6.07941969187120
H         -13.48359330221779   20.45010631108239    7.36084642513792
H         -11.24282089671578   21.19907310495784    8.37736836069779
H          -8.78969809063578   20.66101892964974    8.35374996592843
H          -8.39757809301344   17.48287069637778    5.95980791635055
H          -6.08828888139775   16.00908352339713    5.06640567487089
H          -3.40814317220106   15.02879211726750    4.56537265540819
H          -1.27482337144240   17.89428825799842    6.98856544158174
H          -3.59348691364699   19.35883263512467    7.91007139368433
H          -6.26513944561111   20.34908668431718    8.40309465729733
H          -0.83820921922646   14.74613089280780    4.59452863823682
H           0.72485644330181   16.78980929643636    6.25317218959997
H           1.39950844892680   15.40899126896898    5.26207247432147
