84
 SCF done       -180.526634075899          0.000656938976
C          -0.76271465024999    0.85326876245781    1.40469565403386
C           0.45404535746402    1.47925063466539    1.48014501546020
C           1.69566605605100    0.82088413909893    1.57826519744578
N           2.74557056704255    0.35971345870658    1.63852974545909
C           0.62885121412642    2.87658899114480    1.51053679451064
N           0.86458450852258    3.99819380633798    1.58414571519637
C          -1.00652562790836   -0.57384471486919    1.53204968029344
C          -2.40606786107540   -0.79638471396315    1.55210178693281
C          -2.94879693841941   -2.05233102134836    1.67002006441868
C          -2.07093213130368   -3.13733463875730    1.77376428362620
C          -0.67455812424726   -2.90381993111030    1.74889009751711
C          -0.12438539584517   -1.63417709843591    1.63081699786889
S           0.22389117773310   -4.38519410861629    1.87560783000932
C          -1.26585829438204   -5.28592843277976    1.96154935275646
C          -2.38059851476838   -4.51874291234801    1.89861585782664
Br         -1.21009787904812   -7.15289459707541    2.12135825397605
C          -3.11705704255007    0.48950749090949    1.38484609808803
O          -4.31080931149957    0.63852744638340    1.25446945154073
C          -2.04647758209006    1.51561096361398    1.26912596287869
C          -2.22829211170462    2.80123700164110    0.87245050999353
C          -3.47050678182185    3.50716081569710    0.80485146908129
N          -3.59221017929583    4.36270896296477   -0.20574204494405
N          -4.65548388654908    5.04242577903960   -0.41430218213428
C          -5.75966359098120    4.98515133803088    0.34460247630419
C          -5.73088213811194    4.14933423309969    1.49739359418238
C          -4.53230413839380    3.39926355557229    1.74776093889810
N          -4.58659263311879    2.74038688112409    2.89784923858280
S          -6.02608684336621    2.99474762635097    3.56877171963796
N          -6.63834330609183    3.98318864565544    2.44988468020282
C          -6.83838238845385    5.78179686315531   -0.07998239307385
C          -6.72887720582347    6.49615191991311   -1.25240209552020
C          -7.71689177475824    7.31542016259423   -1.86012425616432
C          -7.33859233888589    7.83386091903829   -3.06004082504046
C          -6.03270769220354    7.44473947744333   -3.44468809533475
S          -5.28330080058386    6.42781324063001   -2.21551441617657
C          -5.36395480708153    7.72000519888073   -4.62038523263897
C          -5.82398035209056    8.46791764655840   -5.73474078475382
C          -4.95350813440828    8.46401046964802   -6.77698371541146
C          -3.77077304882260    7.71127236879087   -6.53199618098271
S          -3.76313604304321    7.05533263262588   -4.91796938684000
C          -2.76659874961663    7.43506255979865   -7.42230034452168
C          -1.68024135344516    6.61300540070144   -7.04378514103886
N          -1.61649099871194    6.23664986468758   -5.76664697205417
N          -0.67152211463448    5.51169214588656   -5.27004218580664
C           0.31661754108516    5.02695590471137   -6.00682601182626
C           0.33621486317273    5.28667399003114   -7.40471897486568
C          -0.68021240685699    6.14180599115241   -7.94084931306356
N          -0.52687128004034    6.35202917780474   -9.24121784060925
S           0.78516803053454    5.55732375776252   -9.73515650034067
N           1.20868787246179    4.90052863032039   -8.32851833692628
C           1.33009466383179    4.22136433261721   -5.37552018692666
C           1.91822992328118    4.44888487735835   -4.18284747552187
C           1.89765527615124    5.60471789055659   -3.29997200039635
C           1.67310562796750    6.90301579848133   -3.66842960189148
C           1.73839285155618    8.00042737901807   -2.78346876856115
N           1.77476964309593    8.93261637857936   -2.11514449135219
C           1.45876074475814    7.33795835605055   -4.99231117627478
N           1.35259335830739    7.77905932723690   -6.04759579806685
C           2.40425717881884    5.16618930804849   -2.00691318218527
C           2.89257437174349    3.83769580117834   -2.12646535315768
C           2.68196186389326    3.35921779536117   -3.50253714131881
O           3.00985665846932    2.30129121913762   -3.98630981085048
C           3.47616961046707    3.16886914111736   -1.07604613236899
C           3.59552218598023    3.84266544397200    0.14260302944780
C           3.11233548538837    5.17146259234998    0.25037810172092
C           2.51018320341648    5.84275117915769   -0.80513871401088
S           3.36592551017004    5.81410371505456    1.83922583442770
C           4.08337993241995    4.30899337154804    2.33799616178935
C           4.14948354334549    3.37144373111801    1.36282446265992
Br          4.67531748437779    4.10904025176343    4.10178380838989
H          -4.01775485237452   -2.19558333000142    1.68085735184020
H           0.94483394069335   -1.50197238077079    1.60906151275476
H          -3.38056407303637   -4.91025997505738    1.93604252570263
H          -1.38666686712883    3.36733102278089    0.49373718236468
H          -7.74230207485643    5.80348578821980    0.50743420451619
H          -8.67320707995774    7.47933547532604   -1.39488376925591
H          -7.96382543852060    8.46064887082822   -3.67127612271287
H          -6.77722902983701    8.96613033250546   -5.74190907767918
H          -5.11711965598785    8.95755775734652   -7.71883965051540
H          -2.80037699818383    7.80709564190910   -8.43422437683834
H           1.62080662661560    3.31893772097244   -5.90276580697062
H           3.83629223397860    2.15821806155252   -1.19027670554892
H           2.13716468017305    6.84428835855356   -0.67066748861473
H           4.55071873488307    2.38359208097401    1.49975341887305
