110
 SCF done       -197.513411300898          0.000429522123
C          -8.25738061850226   -1.17388954477850   -6.48742576437931
C          -7.77008640386718   -1.36125703741650   -7.75706473057708
C          -8.14709696768773   -2.42551615287533   -8.60205631931033
N          -8.41506173342151   -3.26310902828457   -9.34017143928129
C          -6.83677542899969   -0.52388315945571   -8.40125634904922
N          -6.08030700788566    0.11007704993677   -8.98914869503976
C          -9.20219304144879   -2.04649151204580   -5.80193363004507
C          -9.46223064242617   -1.52142382271360   -4.51154447174069
C         -10.31130775055059   -2.13021890234536   -3.62043689995748
C         -10.92727437539934   -3.32218524253008   -4.01618583125815
C         -10.66475207741634   -3.83838889861140   -5.30815922914734
C          -9.81187215242851   -3.21850463636584   -6.21231640404098
S         -11.53281967697269   -5.31596723138754   -5.59445691392972
C         -12.22471885836075   -5.22346934637349   -3.99650810275402
C         -11.82820242463770   -4.14233205404055   -3.28372903439166
Br        -13.40493870959891   -6.56182412085639   -3.42170544915457
C          -8.70386879537450   -0.27102568938601   -4.32678397782375
O          -8.82937895968011    0.52775248003069   -3.42812338809979
C          -7.88788345601258   -0.11724781640596   -5.56658957142586
C          -7.04171599341626    0.92188205748706   -5.80706831661215
C          -6.50948556532874    1.77222244507465   -4.80689971233490
O          -6.03753293393988    2.99746297425551   -5.17854997669359
C          -6.23119312558770    1.59322652451795   -3.46458346864658
C          -6.22978136903282    0.61332928855631   -2.36605859087432
O          -6.55249100552593   -0.54428766561099   -2.33413788204779
N          -5.66745182074841    1.31700623657509   -1.30582591894210
C          -5.24387561063546    2.61275683418741   -1.60170699674265
O          -4.71401751651887    3.36305211410958   -0.82541379074616
C          -5.59098178668230    2.77032318541532   -3.01636362781551
C          -5.49094129288695    3.61984228000597   -4.10515727243259
C          -4.89928442337993    4.90625669249153   -4.23011396844834
C          -4.82461296280369    5.55189271668606   -5.41389069368651
C          -4.23231508112191    6.85306408710681   -5.59083095623516
C          -4.35451855988600    7.80731720671062   -4.61738729932881
S          -3.69350901690211    9.33179637760377   -5.02358606992893
C          -3.16754549391907    8.69745588020344   -6.55472599094359
C          -3.51292629448445    7.35025878822420   -6.74387525752747
C          -3.05778591529234    6.68188249651398   -7.90725091396059
C          -3.35525281485633    5.21529718124569   -8.08097844825130
C          -4.67602799624450    4.98964495250717   -8.82286643587082
C          -2.34119599585854    7.37410052215107   -8.87360339827905
C          -1.80391795622679    6.67446553300918  -10.09396235392325
C          -0.41889243263314    6.08245566603275   -9.82276525509776
C          -2.04798812837537    8.74679731158164   -8.69807228412318
C          -1.32729834313724    9.66261565866594   -9.54609643881111
C          -1.21233803683332   10.89294907099735   -8.98875109495767
S          -1.95914710292314   11.05095315228765   -7.44153710762932
C          -2.45541790002826    9.39144710073846   -7.51855233155605
C          -0.74560350090168    9.39393388571405  -10.86737229044860
C           0.54873159312067    9.07295580350357  -11.03651896423506
C           1.15356812450947    8.80676746400180  -12.29388104495757
C           2.39355329452619    8.25752092187293  -12.43104991521418
C           3.07772728070435    7.95604050856420  -13.64094167430987
C           4.28662661378233    7.36280433091289  -13.46747709418827
C           4.63543230334526    7.14689832690709  -12.11112615779346
S           3.37722692630196    7.75392281583009  -11.05735916447280
C           5.76335132610691    6.53118114814968  -11.61451068760073
C           6.84945206482184    5.98480412421067  -12.33887151305197
C           7.80106892267730    5.41403098710994  -11.55485297894127
C           7.52719995953193    5.47247220879463  -10.16221280980020
S           6.00443824633418    6.30044625136198   -9.89192308281655
C           8.32137358396430    4.95576300149074   -9.17482349252384
C           8.09115466887711    4.97230034182930   -7.78950251506031
S           6.69126794640515    5.68924760146086   -7.04069803044394
C           7.23755062315543    5.26094042143730   -5.44032298087833
C           8.44305967084913    4.58946669005265   -5.50335484126451
C           8.92283608655271    4.42810313498555   -6.81577489187821
S          10.46413693794677    3.67756016279622   -7.22724052888836
C          10.14395742722761    1.93467828285855   -6.75801425604573
C          10.35095748880554    1.63743667189533   -5.28146131468821
C           9.24667527676644    2.17927782340821   -4.38651996014855
S           9.32442792034412    3.98638002542223   -4.09535411019284
C           6.39624778727193    5.63859127788798   -4.33910702090924
C           6.72932263864909    5.66704586672872   -3.04964504929557
H         -10.48546813593335   -1.70460347489409   -2.64502232401083
H          -9.64737547286932   -3.65052060225582   -7.18526435385927
H         -12.15600586142218   -3.93030577369721   -2.28248159169229
H          -6.71199611478625    1.14225818679399   -6.81349088869549
H          -5.54363540517945    0.90519796764500   -0.39175359996940
H          -4.46905159244546    5.30785880842578   -3.32546317961107
H          -5.26902670210941    5.07624659056205   -6.27413261395787
H          -4.86930115559948    7.69824188745597   -3.68267295381746
H          -3.39028212843981    4.74133576177471   -7.09917341803733
H          -2.55433746829429    4.72911052764714   -8.63474164039479
H          -5.49267688552217    5.53003398974231   -8.34880649828492
H          -4.92039730614820    3.92991917706888   -8.84507485925458
H          -4.60399584969107    5.34568107246787   -9.84806151057173
H          -1.72016685188033    7.39318450337435  -10.90884234148025
H          -2.48083233709152    5.88742220908362  -10.42188332109136
H           0.27663882243619    6.86347159042911   -9.52929764284157
H          -0.03530541429984    5.60074282762155  -10.71924278702013
H          -0.45541468426382    5.34753039972509   -9.02226708916022
H          -0.72085394427876   11.74588616449572   -9.41520693424754
H          -1.39840105032449    9.51479386169887  -11.72434548913756
H           1.18353525414681    8.96557488017110  -10.16542946033634
H           0.59016568081151    9.02528960495098  -13.19114834710523
H           2.64485040618249    8.19178429867214  -14.59719639655628
H           4.93707278691801    7.06660881493141  -14.27091155970047
H           6.89542750692130    6.02860245713231  -13.41219929731187
H           8.69741967541568    4.94740249514635  -11.92353931711636
H           9.24079344294724    4.47339412128172   -9.48234215396457
H           9.13208005794214    1.68951958606934   -7.08184630348796
H          10.85794415453855    1.37017799000985   -7.35728405629533
H          11.31071051895254    2.04765239177193   -4.96028919192803
H          10.38809833308427    0.55074997407631   -5.15627672797681
H           9.33539506227648    1.75460200537244   -3.38683845543357
H           8.25617004756049    1.95405558262363   -4.78215518549010
H           5.40230156610495    5.94656282990448   -4.64080748652492
H           7.71196603648265    5.40725739477777   -2.70061183312795
H           6.00943534998527    5.95980781688831   -2.30522476740402
