108
 SCF done       -202.123782952161          0.000873337607
C          -0.61757408355712    6.80588418462386   -1.27751586376401
C          -1.03044602768292    6.35603212757113   -2.50566311704278
C          -0.24479158133238    6.42200522278984   -3.67390404357667
N           0.35233174046860    6.45843072112503   -4.65372973111250
C          -2.26299519076980    5.71231969682530   -2.74340422232760
N          -3.22770677292892    5.14491284502682   -3.00084588391461
C           0.70432190303442    7.32892862203710   -0.95736145415102
C           0.79064359993103    7.49621525631841    0.44606863892351
C           1.91781376391397    7.97736250530572    1.06490143707191
C           3.01296408991835    8.30923053480171    0.25932442862390
C           2.91582333673386    8.14093804420817   -1.14186673119735
C           1.77513978690010    7.65303681544442   -1.76820455051100
S           4.37906004645714    8.62293441265149   -1.94649842524420
C           5.09161689864600    9.03648218374872   -0.41004675641583
C           4.27835467861306    8.82548847838083    0.65179011393617
Br          6.84179227001889    9.70917821475606   -0.35234397726578
C          -0.49348185835046    7.11036709775757    1.06750673453170
O          -0.76577970613619    7.18177152526934    2.25112660632944
C          -1.37840953119798    6.73413710935207   -0.04664899563525
C          -2.74317689572257    6.60634911443785    0.01500494411909
C          -3.58570917065193    6.37630986720817    1.11878405594841
S          -5.20202755294891    7.05029322584201    0.99704633195254
C          -5.66400211489524    6.34845095651281    2.50829639506069
C          -4.63397172350779    5.58414185692901    3.03854517196135
C          -3.46173549141940    5.59612164438572    2.27024986231815
C          -2.28631084657122    4.73438293303628    2.58856874152583
C          -2.48208615808851    3.85265805238571    3.82690748328110
C          -3.94659225880119    3.44414415217763    4.02564649758317
N          -4.17911001431642    2.52980669535794    5.13329157726599
C          -4.76289982815672    4.71920999349816    4.24841486380997
C          -6.95860383496038    6.53654640791579    3.07256901860227
C          -8.01446948655484    7.05517196277082    2.41890868465584
C          -9.32375570220593    7.16256486032511    2.99852442881501
C          -9.70828831815474    7.04656622373253    4.31293489529570
O         -11.03729624144343    7.15461299110962    4.43632226374800
C         -11.54519444364884    7.31106676695656    3.20675375968024
C         -10.55091066108257    7.33486401226527    2.27042074848220
C         -10.69214560007842    7.48820458777496    0.80684440371041
O         -10.05113953745629    8.29122692459711    0.15830565582989
C         -11.63395656537723    6.55454495162567    0.20125200486707
C         -12.14777443606653    5.38942778204091    0.73772725028127
C         -12.90744049030505    4.65282048516023   -0.16119916682332
C         -12.99780762930112    5.24981483425697   -1.41237970614333
S         -12.12117538353152    6.75563384988085   -1.44606691202285
C         -13.67221082990597    4.80134518096638   -2.57223762043368
C         -14.03425008924392    3.50772283544884   -2.83028502177882
C         -14.79359999830090    3.03566616391371   -3.93645091917289
C         -14.99276013785972    1.69016714143489   -3.94873793544412
C         -14.37501193688710    1.01552121530453   -2.86874879424983
S         -13.55389378929802    2.14861576264841   -1.82822472465663
C         -14.37721419497875   -0.32579657843201   -2.53892574024021
C         -15.14352926372983   -1.39988172957181   -3.03781074451094
C         -14.98165093803777   -2.55333476996848   -2.32972060425351
C         -14.08132582282212   -2.45563669483628   -1.23666382980027
S         -13.39525174293848   -0.85840167904085   -1.19149917417239
C         -13.73670646912928   -3.49084077655477   -0.38560804236058
C         -12.85482626756234   -3.50299519623454    0.69325135461220
C         -12.26638770727662   -2.50473293659892    1.45120135475089
C         -10.98514699226926   -2.82841166011002    2.13323725515275
O         -10.48031904629108   -3.92362674418661    2.25107333715308
C         -10.44412366623969   -1.53209188843266    2.59278979594049
C          -9.24294049137459   -1.25470310783176    3.17562258510626
C          -8.93784745329793    0.08169252379459    3.52674890203706
C          -9.89942268457669    1.10160174400156    3.27399293069532
C          -9.60274097696534    2.42375899226619    3.65533254714514
C          -8.40289833800538    2.69724708205581    4.24905782158889
C          -7.42761575546835    1.71961037114629    4.47948089211734
C          -7.70756760607624    0.42840586806357    4.12061179850880
F          -8.14247587981912    3.96632710493181    4.63836825721040
C         -11.13528095603468    0.78369731535206    2.66163433040970
C         -11.40226884430006   -0.51389077456598    2.32453197112647
C         -12.57703144704580   -1.13568540614259    1.71412475404386
C         -13.81006074837314   -0.52681516285544    1.57371972960515
C         -14.98460108323383   -1.24482997573819    1.28539239650737
N         -15.95977646160808   -1.81135139929874    1.06736610991395
C         -14.03017329911328    0.85031837264633    1.74135461510452
N         -14.25036027912013    1.97719023702799    1.80519507194363
H           1.95515616348762    8.09689152782553    2.13638360522369
H           1.74446069350306    7.54954452858864   -2.84008682219810
H           4.55656005404365    9.02719313645312    1.67010635273696
H          -3.28053895444747    6.77014506307024   -0.91391855196097
H          -1.41865659638647    5.37799038394754    2.75433999798641
H          -2.06668142682283    4.11969790702060    1.70994252476850
H          -2.15592972440034    4.39723251337540    4.71722197993088
H          -1.85304157178423    2.96375099886926    3.73436254487844
H          -4.31024070607621    2.94258702673561    3.11946396872272
H          -3.86072004453493    2.94870120174424    6.00228203436000
H          -3.65404732837465    1.67189301518178    4.99825024779673
H          -4.38120691368247    5.24124999436318    5.13133029019835
H          -5.80270839710766    4.46246190297099    4.43333056040431
H          -7.08448602572534    6.19438505357447    4.08852981822903
H          -7.91981020992099    7.37680279655524    1.39015646683503
H          -9.14103832310998    6.90515004670489    5.21055229432892
H         -12.60714381330135    7.43029218517810    3.11760617281402
H         -11.96276193867953    5.07851575279863    1.74945352636250
H         -13.41363841136819    3.74451977743878    0.11193630945894
H         -13.89174619077088    5.54201734938293   -3.32967467909870
H         -15.17845802606725    3.71495165253318   -4.67647962841156
H         -15.54619462061447    1.16177625131470   -4.70412521930530
H         -15.81511869545882   -1.28392263926265   -3.86928730501271
H         -15.50468910811111   -3.46993390196744   -2.53622134492325
H         -14.15200306112463   -4.45272687537552   -0.66102946062612
H         -12.48119168990373   -4.48967963549742    0.95768841511742
H          -8.53184807529642   -2.04335411024001    3.37116832642801
H         -10.32166679337095    3.21101173467641    3.48912859646732
H          -6.48123099512380    1.99518926568836    4.92374098414981
H          -6.97921994658000   -0.34946026164431    4.29356384447906
H         -11.83683510402662    1.57972419340969    2.46999202929258
