97
 SCF done       -191.362596190555          0.000855986914
C          -8.24839305196897   -2.29362101051304   -2.83378696565632
C          -8.28194351276297   -2.11441305793054   -4.19480578407519
C          -8.28638727467969   -3.16786325802439   -5.13068504348931
N          -8.30315337992318   -3.98537764641368   -5.93718849056295
C          -8.30092096714633   -0.85973826909379   -4.83719873880193
N          -8.30329946952091    0.12739624001107   -5.42470016639377
C          -8.15065434222625   -3.57414174079592   -2.14293709890492
C          -8.04850760948325   -3.33259969477216   -0.75100388585521
C          -7.93628094251198   -4.34350397193055    0.17154262034830
C          -7.91997046898442   -5.65929034073901   -0.30337997488092
C          -8.02693832787001   -5.89191992306762   -1.69504900783592
C          -8.14282916702909   -4.86824376972078   -2.62798604988085
S          -7.99435154366132   -7.58962378371569   -2.06309683433008
C          -7.83686069812391   -7.95842940221305   -0.36600922597047
C          -7.81044085228302   -6.86855939949248    0.43674281470335
Br         -7.72572297468064   -9.74735389174934    0.18479888799388
C          -8.08906657454985   -1.88084183927290   -0.49825206543860
O          -8.12731341833270   -1.33679411356275    0.58477671402344
C          -8.21839113206808   -1.25001693633325   -1.83532699614537
C          -8.49802039670976    0.07674538344047   -2.03280006261151
C          -8.27268401466400    1.10596042600430   -1.09808658078419
S          -9.28289563068411    2.52602177152054   -1.10302029412214
C          -8.41381405192892    3.24066716713307    0.22720583300766
C          -7.35029983689321    2.41200620676497    0.60456595027184
C          -7.26663842597728    1.22378794933961   -0.13204288600117
C          -6.20198046922634    0.30147272592196   -0.05865383177651
N          -5.31359484403536   -0.42161360905630   -0.07633799052157
C          -6.41459653819041    2.80866594691133    1.69827716261041
F          -7.05446830187923    2.99419911157146    2.87231103272451
F          -5.44477665894691    1.92708308336963    1.93350373590200
F          -5.80258903959213    3.98558078743774    1.43640851173869
C          -8.78699861397580    4.46456536232128    0.80092287824122
C          -9.85214553174794    5.21236729248997    0.36953088908874
C         -10.27234051992393    6.40520431204514    0.95447971563134
S          -9.48161333768637    7.08956192465451    2.34479166171859
C         -10.62018103257413    8.40399877565370    2.48298279683209
C         -11.55714398615233    8.35183514969190    1.41090409374639
C         -11.36743869090900    7.21692841265448    0.57110881843098
C         -12.21667558913092    6.99503734838617   -0.52307563518005
C         -13.21349651130759    7.89632203564078   -0.78553135463269
F         -14.03908869422478    7.69752464147993   -1.82573749776935
C         -13.37102819616700    9.04320002585348    0.00962364438394
F         -14.33442632092265    9.93060386026358   -0.29669953275362
C         -12.55646704168961    9.27960832027857    1.08708602784640
C         -10.49083319727985    9.24999561314093    3.57922509345574
C         -11.41318135153734   10.17307387415779    4.03804298942776
C         -11.22302057499995   10.98666010250522    5.14034525472907
C         -12.19308867218116   11.87329475648360    5.59703508409476
C         -12.12881872838635   12.73974577475856    6.69915752476684
C         -13.26259252914387   13.49126412271787    6.89073570287078
C         -14.26603396687785   13.24744978352748    5.94422823983502
S         -13.74005773382766   12.03897133885089    4.79847789598152
C         -15.53305313424758   13.81611538333216    5.83276643132804
C         -16.14515063572241   14.78042923984593    6.65173866783083
C         -17.41159879761822   15.11078743064382    6.25386566630657
C         -17.86198852980740   14.42733550880120    5.10301941245484
S         -16.60227598536311   13.34292665036859    4.54335046382359
C         -19.09592492148519   14.57209546714977    4.50667471301756
C         -19.59429827536503   13.92116331112880    3.36733350933835
C         -18.97534763894797   12.97946381939140    2.52600611187421
C         -19.88386185009940   12.61273305402972    1.51511974902506
C         -19.76236771828934   11.73083404753807    0.45586295666469
C         -20.86542869723304   11.57687397683860   -0.38798829837728
C         -21.06171600688245   10.78271138687593   -1.51425881841735
C         -22.38106361742073   10.99748571396208   -2.01023464836209
C         -23.00336808057817   11.92824638106566   -1.19071026438187
C         -22.09640201639955   12.31967782456194   -0.16197982543165
C         -22.22223814678077   13.19686962048448    0.88266109887791
C         -21.11280704888767   13.35683843516597    1.74058694415102
C         -20.92157133869473   14.14285697141097    2.85906728809268
C         -22.98831945730918   10.36970502889231   -3.15921507021024
C         -22.40286267609723    9.47129988459522   -3.94671882174317
H          -7.85714316256567   -4.12503989663979    1.22473627201898
H          -8.22572004356338   -5.09672039803098   -3.67745297951644
H          -7.71731293037924   -6.91231557889279    1.50651832457399
H          -8.97543145678266    0.38093777118848   -2.95628844326097
H          -8.20637369325857    4.82198389631034    1.63955107851244
H         -10.42238762624464    4.85042963266232   -0.47588406895650
H         -12.09644336850859    6.13749873300150   -1.16388523882903
H         -12.69312404351481   10.19296388794044    1.63855017586270
H          -9.58915390496668    9.11999231137876    4.16553644511945
H         -12.37276721235320   10.24752151928494    3.54928795962489
H         -10.28738163137993   10.94814666789959    5.68123829437434
H         -11.25674793562577   12.79204632391931    7.32664941177193
H         -13.38575954069064   14.20427903233332    7.68611707424405
H         -15.64920697211664   15.20370815328866    7.50648855688237
H         -18.03473728387336   15.82806419297760    6.75869334104219
H         -19.76548699304845   15.27736943540623    4.98484865233756
H         -17.97889675003149   12.59312677262794    2.61617420857203
H         -18.84867970251367   11.18015503319790    0.28472781743931
H         -20.33502352812035   10.11595446099346   -1.94002683078150
H         -24.00581763795122   12.29893098906850   -1.30451564080498
H         -23.13375316880144   13.75162477453119    1.05551024618269
H         -21.63652942228484   14.81616380400695    3.29723566180363
H         -24.00459721194598   10.68165270303655   -3.36523469434943
H         -21.39415185641647    9.13302045030124   -3.78321278238727
H         -22.91612361243618    9.04436221991484   -4.79060968707037
