124
 SCF done       -233.323981691879          0.000442122045
C         -14.36159490331339    5.68881699085603   -8.84262860867410
C         -13.17000883975884    5.44000525597511   -9.46978570439581
C         -12.73349786993298    6.10728427009551  -10.63001495574883
N         -12.32451462576635    6.61037878788705  -11.57801819599035
C         -12.23913694879975    4.47145860903120   -9.04197939362850
N         -11.47528737118436    3.66022880226424   -8.76203614450552
C         -15.38544158741610    6.63452320307118   -9.27800941937108
C         -16.46931758904483    6.59966561848964   -8.36176988175561
C         -17.59600355540510    7.37049224560372   -8.51762730429457
C         -17.65855950600034    8.21697045519876   -9.62936978788997
C         -16.57198253023259    8.24795528452651  -10.53576597334246
C         -15.43206652759115    7.46847279167100  -10.37817011422088
S         -16.85915137180508    9.35947397389537  -11.83887678571109
C         -18.41423999547782    9.76140182932983  -11.15985242375475
C         -18.70457454823342    9.09942200164875  -10.01464099262158
Br        -19.50652687889319   11.01412985998866  -12.02807320985020
C         -16.15934460964971    5.63684429447922   -7.29648140366975
O         -16.84942050374726    5.33442079595875   -6.33038812841639
C         -14.84432797938323    5.07849072979170   -7.62587648103623
C         -14.23596573465114    4.14003199021293   -6.83503478895629
N         -14.81498188185183    3.71952061965338   -5.70074946133412
C         -14.26973889335859    2.89782697093100   -4.75657531568538
S         -15.34651970105068    1.93099869685909   -3.79686796546045
C         -13.98009170031541    1.26681094899371   -2.96612359499822
N         -14.21530285445936    0.33131688601351   -1.94703891079708
O         -13.24873097207016   -0.12490740988782   -1.36785165077313
O         -15.37779401657929    0.04823206410076   -1.72123590643392
C         -12.78217731874882    1.76392787197094   -3.40169484857125
C         -12.92192350608849    2.71582610373166   -4.43281692398611
C         -11.83181049261306    3.48401243173182   -4.98783362063279
C         -10.53205820744250    3.19808072910239   -4.83226501489669
C          -9.46102976544444    3.99357567713071   -5.41215771454320
C          -8.42204363982060    3.30864703220721   -6.05860927455061
C          -7.43180757543915    3.95881265612380   -6.76267633943901
C          -7.42874750394492    5.34677670508120   -6.84812957278767
C          -8.40989986227161    6.04215380182807   -6.18165515634221
C          -9.40901390514861    5.38833779960085   -5.44509105021450
N         -10.19954856846041    6.34028402037282   -4.80554796454402
C         -11.12585346587100    6.14151639569367   -3.72148667253989
C          -9.83400864545876    7.61133991133678   -5.16008018379030
O         -10.36348327345836    8.62022547238431   -4.75848493341162
C          -8.63806630088608    7.51847236512923   -6.09755800527345
C          -8.92891067812350    8.17123045431823   -7.46315236376371
C          -9.70974126136947    7.20749926020385   -8.36208919114099
O         -10.79691343103608    6.72006343675676   -8.13805016536425
N          -8.95399667140923    6.97044667868247   -9.47175014555454
C          -9.29008466991311    6.01799974316791  -10.49642288957803
C          -7.76847363471808    7.69102608914631   -9.44663344951615
C          -6.76546253006350    7.73954956808345  -10.38930766299248
C          -5.61786671707426    8.49732374539369  -10.10815925614222
C          -5.53817072501909    9.20843130714473   -8.90478149350526
C          -6.57456280930157    9.18904442890510   -7.98563611699974
C          -7.68995966450503    8.42645280776618   -8.25746806755839
C          -4.55005133887866    8.52818638504291  -11.07898365198329
C          -3.24497155199710    8.75734424728272  -10.79736604080653
C          -2.22604089289168    8.78756425444898  -11.77339560474356
C          -0.89020557192610    8.85709059865662  -11.48393123849912
C           0.18795364417012    8.92052115639617  -12.40394707329317
C           1.41783343442698    8.93496965875902  -11.82344933879572
C           1.38517696424314    8.86573589737507  -10.41000697807645
S          -0.26207712359797    8.82824842960096   -9.83928773403127
C           2.46011990532349    8.78317271200841   -9.54338244424140
C           3.83472898811972    8.81373467349373   -9.86128738041824
C           4.65088513257173    8.64930372762737   -8.78142506709500
C           3.96327771938779    8.47475973765767   -7.55886754926761
S           2.23916913732030    8.55143884185963   -7.82188968542885
C           4.53336083117690    8.21163460111550   -6.32871436261438
C           3.80088951731599    8.02327858945829   -5.16192834440434
C           4.26692418729932    7.62037498967691   -3.92862936432745
C           3.45581871239514    7.88454880384622   -2.71946299375894
O           2.30542722157064    8.26821395751624   -2.68286625334397
C           4.35813075840372    7.62711432270207   -1.57812626674866
C           4.13076980799304    7.80028554131159   -0.24456192569850
C           5.16399118695938    7.50831588086816    0.67528310940811
C           6.42065868672000    7.04775447982235    0.18742662693747
C           7.44861901927113    6.76494252851913    1.10722027309566
C           7.21816415858166    6.93362043225783    2.44419788414248
C           5.98913366444438    7.38283335187901    2.94408050288157
C           4.98099334055718    7.66435027402426    2.06397828297729
F           8.20000127122920    6.66186235449792    3.32556322344911
C           6.62507325507227    6.87133665045143   -1.20208990263174
C           5.60630323158509    7.14918464142932   -2.07096971635906
C           5.50996876067113    7.02455603315384   -3.52680339350000
C           6.36256176461203    6.27493876147321   -4.30608710491889
C           6.10161823795147    5.89430721531545   -5.63640624236978
N           5.92576560074283    5.50599572440640   -6.70357025455527
C           7.55309995921279    5.69305088963909   -3.83055316243727
N           8.54674265101642    5.21545236554236   -3.50701879854693
H         -18.40504431693018    7.32199552944310   -7.80579213328244
H         -14.63102698862662    7.52593971980396  -11.09595868391851
H         -19.61862011949159    9.22616174471156   -9.46386416306026
H         -13.29055304276511    3.69499849652140   -7.10771671387733
H         -15.77213024999542    4.08161355304706   -5.56230597157253
H         -11.84724890552672    1.46321233268619   -2.96619374983512
H         -12.09548017383211    4.36253362708045   -5.55695051809048
H         -10.22720611116588    2.27440860622404   -4.35946184502021
H          -8.42974521639142    2.22935819185626   -6.02722213589251
H          -6.66153263552638    3.38836547302799   -7.25782619860207
H          -6.66728840848746    5.86785047043457   -7.40900888287260
H         -10.79027640524855    5.32363268963992   -3.08572953644887
H         -12.13743429066518    5.93548728246056   -4.07505299379120
H         -11.15047300878428    7.07087339753403   -3.14968004956747
H          -7.79633803589519    8.04729891451526   -5.63841126859511
H          -9.51043597819898    9.08202609314474   -7.28466514492580
H         -10.01219661125377    5.31573942797893  -10.08489980428783
H          -8.39470725026380    5.47285477476797  -10.79397797419787
H          -9.72870922603035    6.51112369067207  -11.36646760016998
H          -6.83581141346373    7.19344349111801  -11.31699156859465
H          -4.66645391106901    9.81047967102422   -8.70404816619085
H          -6.50622143742499    9.76333710301671   -7.07405318471882
H          -4.82871552140698    8.30255778483603  -12.10087696730411
H          -2.93247199102231    8.89675307573233   -9.77072554786499
H          -2.51221641602618    8.74578985993030  -12.81624329374818
H           0.01452451132658    8.95215537316508  -13.46513238567123
H           2.34403107953592    8.97627507489024  -12.36746313905040
H           4.18515230848986    8.95442589748620  -10.86786435992006
H           5.72497854107976    8.62852574273938   -8.82552404569919
H           5.61215190113225    8.15889053407620   -6.29954799490053
H           2.74684556369014    8.28548999821792   -5.18675193787537
H           3.17338819977305    8.15464146387848    0.10725529824895
H           8.40696746420491    6.41339469637728    0.75801968692017
H           5.86491655407816    7.49636755830777    4.00936747318634
H           4.02463525273048    8.01205551457475    2.42498898998797
H           7.58842033794178    6.52536737748384   -1.54143494025540
