96
 SCF done       -184.143921363749          0.000978860305
C          -3.05384286915322    5.56346447390039    9.15948079242813
C          -1.88401147709640    6.22403542305165    9.44038017153451
C          -1.81780208189041    7.58633741379875    9.80010708030869
N          -1.69680091363183    8.68777804617607   10.10078106808432
C          -0.58643836705529    5.67565182033837    9.36786550187410
N           0.50495166863966    5.32188168126574    9.30454048006502
C          -4.37227330470628    6.18208799988338    9.11150521275030
C          -5.29878596481067    5.21775990247903    8.64434815348170
C          -6.63569554311495    5.48857640423114    8.47779281939789
C          -7.08223169007843    6.77642495378262    8.79167592197558
C          -6.15102336717501    7.73359014274710    9.26105834495794
C          -4.79794497349611    7.45836433157986    9.42595245927914
S          -6.91463914377258    9.25645660279905    9.59538150830273
C          -8.45380945929962    8.59798394100563    9.10629738685846
C          -8.39984276915549    7.30301258799750    8.71210978311674
Br         -9.98398494994458    9.68082473606842    9.15974206747833
C          -4.59790790110735    3.95141265600092    8.40442996076816
O          -5.13636046763180    2.91532392368483    8.02036532058233
C          -3.20064664695225    4.16786981741775    8.77352417375249
C          -2.18821930795159    3.24583594501312    8.92405874312103
C          -1.98788274532335    1.91113637286899    8.54339524049900
O          -0.89007611121804    1.32848435410390    9.13794629808111
C          -0.72120998867752    0.12457551979029    8.64969254145768
C          -1.68284012457687   -0.16879580425950    7.70455888666066
N          -1.82374417049361   -1.45759294990477    7.14499796650380
O          -0.88089744230155   -2.21420425186043    7.26739623648515
O          -2.88010831333996   -1.75822223027991    6.61487397136515
C          -2.52162337111595    0.99686499497437    7.60018937887941
N          -3.52692412698584    1.24016598170349    6.75176466795113
C          -3.75853014985817    0.58418344476081    5.56583864263290
C          -4.91218488316091    0.59319185570152    4.88753745701093
C          -6.18266393880225    1.24246511135363    5.33336080844084
C          -5.00216141796885   -0.17476228885217    3.59006637417596
N          -5.77398129963953   -1.38912640256236    3.75870804980273
C          -5.40793092840527   -2.37722636796127    4.58379014947784
C          -6.15838919284852   -3.49579972804431    4.81239081352858
C          -5.73742105099239   -4.52483898579301    5.66022977549797
C          -6.46090557258174   -5.66753208211972    5.91165586278951
C          -6.10209836180179   -6.75605012003829    6.73379714328897
C          -7.03066881641056   -7.75695061883219    6.77676826421974
C          -8.17503354139389   -7.50486689019051    5.99329680774208
S          -8.04155111657017   -5.96595896945366    5.19378603415333
C          -9.29672187787391   -8.30897212296031    5.82834182212467
C          -9.54660575044575   -9.58087208050675    6.36847597823045
C         -10.76044796160275  -10.10214352132655    6.00749334086529
C         -11.52011120833660   -9.26352606704740    5.17063714055389
S         -10.65067839478672   -7.78631350564945    4.84968884403012
C         -12.79022826566196   -9.51565154555723    4.67034611195110
C         -13.46934462414278   -8.63531012277958    3.84709859318572
C         -14.74484693143968   -8.75334516215206    3.32092059646603
C         -15.10520318528221   -7.94865738040009    2.13774307355209
O         -14.47004517895854   -7.03306319214363    1.65268932900700
C         -16.37691715490075   -8.51853110124573    1.64463880666603
C         -17.09348678500176   -8.19182563927674    0.53197644322724
C         -18.27710733548679   -8.90800239867579    0.23861734787879
C         -18.68871640052913   -9.95680528664906    1.10962756469245
C         -19.86283057128549  -10.67304324009391    0.80814131636552
C         -20.58185211114444  -10.34491422329679   -0.30730651210344
C         -20.19582172798007   -9.31539386957492   -1.17441882846131
C         -19.05639943206437   -8.61144550276833   -0.89713020977738
F         -21.70705218196229  -11.02952364654760   -0.59675935021785
C         -17.92829672678187  -10.26636243965562    2.26337966098216
C         -16.79308957279114   -9.55297203766348    2.53039485563141
C         -15.83969222393878   -9.61842777210632    3.64198041787317
C         -16.08753305644551  -10.24738795537527    4.84427529783367
C         -15.33358634810401  -10.05537912052969    6.01647050967559
N         -14.79439356084178   -9.90267674831706    7.02026708147486
C         -17.20101281375869  -11.07278320900161    5.08398905913725
N         -18.07460047448068  -11.77743409242495    5.33359679422835
H          -7.31665481276865    4.73214075538635    8.12023210351638
H          -4.13160913221783    8.22137235303786    9.79119445325099
H          -9.25402736739438    6.74139675982673    8.38065139102688
H          -1.32794834296137    3.59830047451646    9.48275612921049
H           0.07882551416289   -0.48618756005545    9.02364148089501
H          -4.23184618927533    1.91144901526845    7.09926265443499
H          -2.90044841168524    0.07663900775847    5.14879826306491
H          -6.09468001098669    1.70581313075871    6.31012110121218
H          -6.97963778980958    0.49983885401067    5.37934929914748
H          -6.48285391044342    2.00484590229613    4.61302152620502
H          -3.99852834888689   -0.43614618454950    3.23958837384132
H          -5.49128198666627    0.43054177509405    2.82420224946016
H          -6.68231970858254   -1.44762637750023    3.32357670055835
H          -4.45821315081512   -2.24812786730066    5.08404162173885
H          -7.11538283009990   -3.60678203501025    4.31827095231409
H          -4.77929767504101   -4.41830690079677    6.15100967730632
H          -5.16844023377227   -6.77057517237036    7.26809553832824
H          -6.92266148692224   -8.65906069378422    7.35117054374203
H          -8.83809550204681  -10.08464283915856    7.00132127816843
H         -11.13160737419419  -11.05885551703421    6.32854817759292
H         -13.23267601873548  -10.46262102676668    4.94135219520840
H         -12.91849151038677   -7.77103526326775    3.48518908997640
H         -16.76293766943014   -7.39700233384099   -0.12006858443608
H         -20.19232757461251  -11.47061969173259    1.45568771471217
H         -20.80325452035563   -9.10043411015137   -2.03933263970558
H         -18.73739561142097   -7.81313924301086   -1.55064404144937
H         -18.26480029487475  -11.06754497667203    2.90190934471403
