113
 SCF done       -203.163346476750          0.000595847442
C         -12.54288439064100    1.79106359508231    4.77776175825644
C         -13.76259857891579    1.24548390051881    4.47437923428628
C         -14.81171087998695    1.09224361614038    5.40444533157146
N         -15.70021057128070    0.95238716285936    6.11755303307092
C         -14.11423575324758    0.72176249974087    3.21196983721451
N         -14.45370229859830    0.24876967114018    2.22225264245503
C         -12.10228712804450    2.21468257266124    6.10045811377953
C         -10.72642614722665    2.54401636065885    6.03277271698483
C         -10.01478356665555    2.97386178694790    7.12608997010207
C         -10.69388843393164    3.08677312619775    8.34398400215968
C         -12.07043914193796    2.76236842888265    8.39983387092404
C         -12.78980637870336    2.32473944302497    7.29446120197135
S         -12.71550740450907    2.98535208370626    9.99761454751543
C         -11.14855056761126    3.50096092676600   10.56225864811589
C         -10.19027988376037    3.50737655045334    9.60520660709748
Br        -10.92497524349770    3.98255509622595   12.36088471841071
C         -10.24213828759413    2.36612977814990    4.64948038362530
O          -9.11515233284300    2.58283019460092    4.25244609659230
C         -11.42731652378310    1.95866002480305    3.86527955305357
C         -11.52356037697032    1.96305062716484    2.50162304182020
C         -10.48094683649946    2.08670986457122    1.55514272564909
S         -10.84481688756950    2.95135858027172    0.07902035076430
C          -9.21072432224636    2.85322988212678   -0.41866457537398
C          -8.41884113979678    2.16730483361212    0.45297701154863
C          -6.96547506932831    1.91301991151440    0.23643222257478
C          -9.14515292266606    1.69102910567324    1.58133939888090
C          -8.56275411175627    0.79858505485313    2.54849124139189
C          -9.20340365555839   -0.25827931750572    3.08989640488157
C          -8.62840600618054   -1.17535380651614    4.02236192948274
C          -7.51400565585496   -0.94875876253862    4.75556865336298
C          -6.96183961931461   -1.91719899707563    5.63410547824442
N          -7.38968606002171   -3.13170782034082    5.81013486510908
C          -6.62490867103268   -3.80532678488321    6.67519987186267
C          -5.55710269416908   -3.10708493725011    7.19726495313675
S          -5.51416831551945   -1.50784407212367    6.59798522301610
C          -4.87693716922135   -3.95187136590626    8.19636750062975
C          -5.22163999183757   -5.34026262012371    7.63661852136805
C          -6.71328338672166   -5.23368631217615    7.18377821552658
C          -7.67803886053979   -5.32289213089113    8.37878474196861
C          -9.06139371671649   -4.75909572058266    8.07339877213014
C          -7.10753362463918   -6.15662844057436    6.01064381311033
C          -7.80875348710387   -7.47318813399187    6.33823682684939
N          -4.70046506168180   -6.27655124995661    8.61168992776924
C          -3.59506112845366   -5.70550261222236    9.35434335610461
S          -3.09641072169739   -4.13395375162411    8.53583619623090
C          -4.80850132574048   -7.60425275321396    8.39998633560805
C          -4.35233169640387   -8.63525973485327    9.16876434029499
C          -3.68734680722498   -8.70298183261134   10.42113534855778
C          -3.47931852175624   -9.96968069778698   10.87213353613556
C          -3.96298540701577  -10.98205087133495   10.00973279131759
S          -4.68006142586555  -10.27698034716738    8.58971716487533
C          -3.97332098679559  -12.34960259626746   10.20813400031916
C          -3.54151684874040  -13.10635128376287   11.31530156872027
C          -3.84791492568163  -14.43212022814095   11.21986571937319
C          -4.55884465182770  -14.78947684954703   10.04883814970157
S          -4.73637313991235  -13.39350249870324    9.02651031820233
C          -4.98592317564410  -16.07083460963925    9.73151991874528
C          -5.73609839871628  -16.52013245616774    8.65297675649553
C          -6.51906249409992  -15.86655475587374    7.71042465408012
C          -7.16893517982598  -14.59846884361483    7.67350770388788
C          -7.51585268850241  -13.80978090082205    8.75605682139776
C          -8.07897872468352  -12.52724510687799    8.65636014704860
N          -8.49078256386820  -11.45358887343027    8.63802808164402
C          -7.40542144045863  -14.24989942146346   10.08651052102491
N          -7.34951213753079  -14.58756539211054   11.18350341725928
C          -7.57860546203947  -14.34145196186426    6.29326292706314
C          -7.36250150952664  -15.51711999514201    5.53532066196913
C          -6.74935636656883  -16.54161201616220    6.41310062941184
O          -6.46303873923491  -17.68266229723984    6.11710690737060
C          -7.68273473813495  -15.60556134699105    4.20447529297199
C          -8.22554402580336  -14.47092049243932    3.58743672502320
C          -8.41993465980110  -13.29856719511577    4.35002849306050
C          -8.11087664177632  -13.21392550039507    5.70359801016553
S          -9.08418566019424  -12.01222953344613    3.38628201005375
C          -9.09641257771057  -13.05896550929969    1.99110504728009
C          -8.62672511562739  -14.30443229294123    2.23204110417770
Br         -9.72660707229045  -12.40328800119679    0.34843805732183
H          -8.96707923557414    3.21738066406528    7.04477223289460
H         -13.83846102418396    2.09520456445563    7.38454876102179
H          -9.17061461827731    3.79884347378603    9.77929564225309
H         -12.51947311553536    1.97233975747771    2.07202163854722
H          -8.91544578584061    3.31201307258049   -1.34250420394165
H          -6.63329911027247    2.37337271967839   -0.69009729395299
H          -6.77129491214235    0.84245099046321    0.18663117393783
H          -6.38511360368609    2.32563700297046    1.06059392266919
H          -7.51558697076518    0.95799652673994    2.75884825465538
H         -10.21874784394291   -0.46928320630841    2.77803404151045
H          -9.13599695665729   -2.11997735310777    4.16106993380757
H          -6.99742883911121   -0.00168085276269    4.70673115145154
H          -5.32332180172057   -3.78323655881772    9.18476035466831
H          -4.63899669962808   -5.45408256760752    6.70472527079586
H          -7.75785525490032   -6.36516814458779    8.68825968623648
H          -7.25831513418203   -4.76536300143354    9.21920576561542
H          -9.52641865058247   -5.27915321671860    7.24223655919420
H          -8.99821211760747   -3.70494243919278    7.81505923281697
H          -9.70134011405527   -4.86302434068401    8.94634140049350
H          -6.20865548997460   -6.36589482713313    5.42379629982598
H          -7.77317172926396   -5.57538447411651    5.36931791610854
H          -7.25691259165654   -8.09322445355477    7.03880100343380
H          -7.92760044839084   -8.04000785120117    5.41726697982141
H          -8.79826647175994   -7.30529353911139    6.75136182540427
H          -2.73353334652667   -6.37427445651706    9.35989752086271
H          -3.89002432001846   -5.46302438520645   10.38066647111557
H          -5.37286714045238   -7.86499671477014    7.51733622388222
H          -3.41545705201964   -7.82630868889065   10.98026030577018
H          -3.00836415586152  -10.20693323021776   11.80894162563424
H          -3.04248057016315  -12.65766519710052   12.15524252380468
H          -3.62236395635151  -15.16241315520392   11.97607454630382
H          -4.61526710977065  -16.83901939981707   10.39948438424476
H          -5.65420093347025  -17.58523957347481    8.45175403147696
H          -7.51965037173628  -16.51729103938030    3.65144108935679
H          -8.27761142729918  -12.29800614926208    6.24572642328483
H          -8.56363297889119  -15.07674160335188    1.48722520920082
