106
 SCF done       -204.916441693126          0.000930945601
C         -15.06954858410812   -7.82935483523661    7.66884368789687
C         -13.73529489309274   -8.04414332063010    7.40011825175323
C         -12.93337119427585   -8.97620205022370    8.08642306156326
N         -12.22721271571167   -9.72170406205037    8.60239819881168
C         -12.97275770602754   -7.37186360945278    6.42550369332657
N         -12.27244049155655   -6.87175072759482    5.66301574632962
C         -15.83894293525997   -8.51525028618715    8.70655859382535
C         -17.15493459425524   -7.99228157342659    8.71339141562454
C         -18.12798187000667   -8.44201703102235    9.57052699016680
C         -17.78865979530324   -9.46407139919907   10.46457816001584
C         -16.47267098081385   -9.98044112053333   10.45110597854728
C         -15.48609904880471   -9.52073649670271    9.58540389647476
S         -16.26974851877018  -11.24299631637939   11.62845646653182
C         -17.93446870492172  -11.06183168651053   12.11457656505749
C         -18.60854090130671  -10.10554121738088   11.43345409138619
Br        -18.62661134221301  -12.15526983929853   13.47311632205244
C         -17.27082554250651   -6.95353256562135    7.66776181603747
O         -18.26318873133139   -6.29812437224587    7.41425369801698
C         -15.95135067226089   -6.90504117765395    7.00856941648125
C         -15.66197899990737   -6.14494958335821    5.88909940205151
C         -16.55702284705992   -5.29628220615952    5.25305065493756
C         -16.27145153458627   -4.65516765933996    4.05731282098631
C         -17.15146041649225   -3.85461205036892    3.30361713159386
C         -16.63620271468126   -3.44071848802439    2.10415193644735
C         -15.32454611538898   -3.88729328104030    1.87032353183729
S         -14.74325922273685   -4.82317197452224    3.22197363199646
C         -14.55477961622714   -3.73913509571274    0.71731226425501
C         -14.95442587961575   -3.17933210375209   -0.50720850721068
C         -14.01382528072573   -3.33725960828320   -1.48680340013524
C         -12.83362401492198   -3.99241052457170   -1.06894037586654
S         -12.91973924953387   -4.35810914511772    0.63324848678252
C         -11.85428641816178   -4.38189727187685   -1.97054000247140
C         -10.63394413469671   -5.03385698568871   -1.80849535690476
C          -9.97055014184695   -5.52400802888558   -2.98487867378056
C          -8.71468033241189   -6.18050300178856   -2.90395620395733
N          -8.16062315899901   -6.71487688443842   -4.00545681259635
C          -8.79155357077552   -6.58073150639567   -5.14567090591181
C         -10.00058237413482   -5.87792759399558   -5.23517697133902
N         -10.57978561802491   -5.37505944438762   -4.17246295697938
C          -7.97972996017871   -6.24076937946092   -1.67345835302821
C          -8.63796399377472   -5.75848498713745   -0.49860171385209
C          -9.96433944092436   -5.23587834516099   -0.56370415392334
N         -10.59693700012374   -4.89920644827448    0.56462302287337
C          -9.98222724254643   -5.02765621187029    1.71597180839621
C          -8.66772413710780   -5.50307127607611    1.77084089927502
N          -8.02430891107893   -5.87117322347716    0.68889761541947
C          -6.69897912077459   -6.79905241230085   -1.68590033224526
C          -5.69700903786263   -6.61490952606276   -0.74912863549838
C          -4.50743110807897   -7.31990296056565   -0.78500224553463
C          -3.36996843947225   -7.01066401911079   -0.04661112937717
C          -2.20343806248665   -7.78331254559764    0.06509374332720
C          -1.19993429454651   -7.18074111391331    0.77974050281375
C          -1.52490526806151   -5.88794846288399    1.22010075239962
S          -3.16561477463899   -5.48811066872167    0.79092685892472
C          -0.66227218865009   -4.96507566743982    1.81573788197841
C           0.64679938606475   -5.19394266801230    2.26918239448178
C           1.28914516028089   -4.05875535047195    2.68753289162845
C           0.52122233417834   -2.88652363869023    2.55679211987756
S          -1.07580740698711   -3.27620348869685    1.96489295160138
C           0.96363487808828   -1.59038892133196    2.77814873045463
C           0.21511867325579   -0.46070031474081    2.48625438348801
C           0.61624101961015    0.86121118448794    2.53183599426692
C           1.77051256476448    1.50282457319641    3.09384895568804
C           2.50479641030096    1.09476720340551    4.18489252150100
C           3.60918333722642    1.80248182320386    4.69615551321015
N           4.52959924859107    2.32750777482748    5.13992493203764
C           2.18278779821818   -0.01547616952497    4.98897432226346
N           1.95057290305412   -0.88150385584795    5.70720190076646
C           1.92177005368479    2.79454222961912    2.42115677012752
C           0.77255407316441    3.02685502809528    1.62543832003462
C          -0.12288274917078    1.85378872978128    1.72018161522563
O          -1.20979168562058    1.71040096029050    1.20193558062295
C           0.60975601529766    4.16645954040397    0.87806667356333
C           1.63760780792173    5.11652175523727    0.90402165278507
C           2.78522771935594    4.86970619956517    1.69179096610687
C           2.94440976540461    3.72079458673462    2.45953478922591
S           3.93962509982207    6.16227820338639    1.56217805508624
C           2.87732343364093    7.00568609954128    0.46627916652342
C           1.71784942107153    6.35568177644679    0.21044367927726
Br          3.40223863989548    8.66246749334898   -0.24055521324005
H         -19.12191385744516   -8.02307744890081    9.54996554296971
H         -14.49903966941995   -9.95079900279109    9.61399107959959
H         -19.64157663905209   -9.86256684988674   11.60353428897922
H         -14.67809968364056   -6.23917043478713    5.44608038794971
H         -17.54043111583952   -5.15566498743656    5.67830366366855
H         -18.14120609358226   -3.62354002313622    3.65495793424267
H         -17.17039529811768   -2.83569968702884    1.39391633063747
H         -15.91029449742051   -2.70953813442227   -0.65623053409285
H         -14.14146887333956   -3.01117329131514   -2.50434008268926
H         -12.10135583686534   -4.19256936176378   -3.00990458923750
H          -8.33083415175407   -7.03783412011950   -6.01063173365628
H         -10.51001532184394   -5.73282995169238   -6.17790120449832
H         -10.54835334664313   -4.77087220682140    2.59951731417132
H          -8.13871003650800   -5.60950306767264    2.70729874965135
H          -6.46383196239303   -7.37149007158310   -2.57519424345641
H          -5.83602538100853   -5.87337342843239    0.02492626246956
H          -4.43506969175007   -8.18288449975533   -1.43589671189309
H          -2.12740345596132   -8.76047334623253   -0.37805911331938
H          -0.23665275378035   -7.62308863802825    0.95682731985823
H           1.08715001685604   -6.17440100627647    2.28270316894914
H           2.29475548453360   -4.03299622408922    3.06716942680228
H           1.98271927152016   -1.49120457919666    3.12177533737820
H          -0.76668318677933   -0.61431481951055    2.04747852582862
H          -0.27850191315745    4.31977979355345    0.28554411204811
H           3.84086093028094    3.57491944118773    3.03898010095402
H           0.95051697523395    6.73066857429078   -0.44196325873883
