125
 SCF done       -227.817056589458          0.000969911370
C          -6.28984906275264    8.96244585845622   -5.03063453465116
C          -5.63971123884629    7.90635751976446   -5.60887945652430
C          -4.83840299315111    8.00612311568216   -6.76665550744298
N          -4.17327368531429    8.02566622217155   -7.70159131195636
C          -5.66667968274936    6.57891425877043   -5.12981580397357
N          -5.63916520816263    5.48068263210889   -4.79605950011544
C          -6.25486330339344   10.34282981298151   -5.49204127633158
C          -6.97585627451645   11.15301304700957   -4.57999464044021
C          -7.12652569977226   12.50806893499115   -4.75142993058859
C          -6.53793919611920   13.09342453853747   -5.87660573019081
C          -5.81997312753397   12.27627708082215   -6.78386746787701
C          -5.66746139936027   10.90715002263270   -6.61078987878700
S          -5.17762886880768   13.20177295904887   -8.10649736431845
C          -5.87565736694039   14.65211794798424   -7.43576984464519
C          -6.55140234083176   14.45675893695496   -6.27807595733282
Br         -5.64024498632636   16.28716627160795   -8.32267007650719
C          -7.50931605829197   10.31677267048375   -3.48785560359335
O          -8.17100971586680   10.69059858016050   -2.54635990767497
C          -7.10795665551489    8.92230793062644   -3.82559854332854
C          -7.58845588681456    7.82535049857402   -3.19837568271948
C          -8.33706781181212    7.84418768981092   -1.95983921988957
C          -7.79231588434577    8.38650074583835   -0.83318447016271
S          -8.69704155843457    8.10741574720826    0.59338381623900
C          -9.91150014142707    7.27732806009761   -0.33132565544993
C          -9.60943979166811    7.21567804313058   -1.69917006251160
C         -10.57342542823339    6.70833067148380   -2.60178891028183
C         -10.33072999225033    6.87960753005490   -4.07921374108769
C         -10.71439883758210    8.29877941151875   -4.50791992161829
C         -11.76491627349693    6.18377270189766   -2.12287627058806
C         -12.81894018776315    5.67668255185007   -3.07213864604531
C         -12.56854145449496    4.21724294923438   -3.46205044160954
C         -12.01011162274661    6.13248552266675   -0.72844041749318
C         -13.15743651942775    5.64735662630291    0.00336170515972
C         -13.06383996151164    5.92386648306361    1.33528277599261
S         -11.61890740434485    6.72566000783176    1.80168460600004
C         -11.09077923074116    6.73157007535390    0.14863343539043
C         -14.29515232195410    4.91762568405790   -0.52320048378655
C         -15.55850430460394    5.13315189635942   -0.12334547823496
C         -16.68997391209432    4.42818884687616   -0.64663536530716
O         -17.92557298984310    4.78226174658616   -0.20587803062397
C         -18.86232300732784    4.05722508351856   -0.84742939820708
C         -18.20064492415299    3.19122532554113   -1.73349037771811
C         -16.81230950244408    3.44301307965327   -1.59062681547793
N         -18.67728643919256    2.22356409091830   -2.63368953740655
O         -19.87752649848989    2.01398966437405   -2.71882693420728
O         -17.84483475600438    1.63183302155215   -3.29637777168990
C         -20.20433150540534    4.36703396713878   -0.48112518558340
C         -21.33500716836054    3.85885554409415   -1.01476030336611
C         -22.66159562573634    4.28556810058585   -0.65099710080672
C         -22.87680502188174    5.55259461667160   -0.17824709126131
S         -24.51730619496316    5.96276061034279    0.07243427717844
C         -24.98819853626422    4.37512561544023   -0.45119094700836
C         -23.90604032079782    3.55454396159127   -0.80722746928639
C         -24.17394445086604    2.22563836322604   -1.22747760665871
C         -23.02947887576339    1.27235578282718   -1.45017174383606
C         -22.30763597607766    0.97062908617450   -0.13438393895794
C         -25.48997391968032    1.78964459175468   -1.36466631587072
C         -25.80582803634358    0.43897189494416   -1.95752205103102
C         -25.82166019571208   -0.67594740726729   -0.90652470234821
C         -26.56999355635960    2.61990682118180   -0.97797098403246
C         -28.00134843904928    2.39363299352696   -0.98479810420470
C         -28.69282513479984    3.50676577715231   -0.58180882243975
S         -27.71687020602628    4.83270253345738   -0.13458627864633
C         -26.29153667864519    3.91762608233844   -0.52723129253169
C         -28.70752770233475    1.17263863276017   -1.25358260636358
C         -29.96159280148086    1.09719223429993   -1.76029995173288
C         -30.63647546068605   -0.12291261196396   -2.02519737716812
C         -30.40794080800787   -1.37778964594794   -1.54146981781406
C         -29.63931792246265   -1.89656296712125   -0.43008940831326
C         -29.39076765356744   -1.27285201327132    0.76637368296627
C         -28.71494892868942   -1.87815234440871    1.84416578551434
N         -28.14842755848544   -2.31549007151289    2.74195871649336
C         -29.83020296400013    0.02886493625719    1.07750198552127
N         -30.17721084476986    1.07898206000262    1.38451464452617
C         -29.39617367697881   -3.31200071120369   -0.69376465569028
C         -30.19631089633243   -3.71356116896381   -1.79230651734975
C         -30.92998157045454   -2.54055136403941   -2.31029212813515
O         -31.74548709848257   -2.51258257935605   -3.20331298864636
C         -30.21465463155607   -5.00596745033045   -2.25696743475249
C         -29.39526670140362   -5.94141408267354   -1.61574042312564
C         -28.58530188527173   -5.52511697412570   -0.53219547887176
C         -28.57304326476433   -4.21978204781493   -0.05584958640440
S         -27.64162471581780   -6.83857025004568    0.10243054695414
C         -28.34168640292205   -7.91606011930646   -1.07645856111441
C         -29.23488885629992   -7.32450546747318   -1.90452449155230
Br        -27.82716582649199   -9.71949810124296   -1.10099521959128
H          -7.68331230692931   13.09675546488407   -4.03934103294355
H          -5.11573817621598   10.32769834560520   -7.33194014470266
H          -7.04031383324635   15.24080768305959   -5.72930481484234
H          -7.37701886975635    6.84298649231516   -3.60236237817705
H          -6.84900512662757    8.89205537200268   -0.76218764173230
H         -10.89951986790552    6.15789362052304   -4.66081263393844
H          -9.28102822840299    6.71111175409961   -4.30864273874732
H         -11.77455234185619    8.47512546164036   -4.34053016878344
H         -10.50132142673195    8.44618408605651   -5.56468422370562
H         -10.15795868862850    9.03658020962774   -3.93438731610382
H         -12.84371504420049    6.29054720351252   -3.97198249556026
H         -13.79719804356420    5.77108324640672   -2.59981684892658
H         -11.64561666094367    4.12170159293485   -4.02909625666187
H         -13.38745180124594    3.84271859275050   -4.07220763724261
H         -12.47312646348223    3.58971283571791   -2.57866820043118
H         -13.76848953183782    5.64563521285152    2.09454362930164
H         -14.09653314976205    4.14173262752914   -1.24533995148951
H         -15.78883694834565    5.90697351113584    0.59484263955382
H         -16.03954478792138    2.94099415933163   -2.13340144029491
H         -20.25292696928113    5.09582290738447    0.31760707069650
H         -21.24695769901176    3.11997764343340   -1.79012451712178
H         -22.13369850904318    6.30823546737584   -0.01508903893555
H         -22.32433041053931    1.66807574277392   -2.17855606740814
H         -23.38493293639067    0.32828443014330   -1.85149627361693
H         -21.89782837058101    1.87251828487025    0.31174965596695
H         -21.49003358734209    0.27809372900303   -0.31719761868610
H         -22.99499314330475    0.51959762268910    0.57866901297492
H         -25.08334413002580    0.19158613353954   -2.73602969424617
H         -26.77422279945995    0.50090859126224   -2.45564737321287
H         -24.81397700006251   -0.90015095332726   -0.56759366631528
H         -26.25036196217401   -1.58613429085834   -1.32371151077296
H         -26.39923339303282   -0.38278441149318   -0.03127927760119
H         -29.75453864453856    3.57573744171138   -0.44845933434389
H         -28.19745730563234    0.25046416432923   -1.03033345779154
H         -30.45688972531775    1.99816068090677   -2.09364356660803
H         -31.39941774465709   -0.08346013777448   -2.79740207633880
H         -30.84037317153143   -5.28783930797751   -3.08907049339814
H         -27.93498298909165   -3.94605140468501    0.76816943271945
H         -29.76016668906837   -7.83995872803770   -2.68761497758282
