101
 SCF done       -196.886533795427          0.000982048037
C          -5.67167839701987   -2.69854800419015   -0.39550552145080
C          -6.09248261689135   -3.43644353090741    0.67965537871008
C          -5.41002833900423   -4.56142303183675    1.19001994649277
N          -4.91767089504271   -5.48716747642977    1.65733748706729
C          -7.23761957768630   -3.19986135266954    1.46413825989062
N          -8.15168132785020   -3.10506939157643    2.15551673189618
C          -4.49363180041030   -2.99163342316110   -1.20645518088659
C          -4.39615862794524   -2.02720954028557   -2.23967535202267
C          -3.38963327366011   -2.03855807806524   -3.17422456926439
C          -2.42778807209076   -3.04992656956103   -3.08348253166600
C          -2.53052667401587   -4.00708961040726   -2.04679429511682
C          -3.55094045985300   -3.99696375961056   -1.10374195554593
S          -1.23811330894046   -5.16702870584023   -2.11850980801536
C          -0.58705865319397   -4.36014955096890   -3.52063398279027
C          -1.29836089113938   -3.27876817784910   -3.91699686606054
Br          0.96991801064352   -5.02266678875485   -4.33018361406873
C          -5.51701342556874   -1.07652437275867   -2.12055739691788
O          -5.75948923011508   -0.14534751668642   -2.86679078990219
C          -6.27883916662348   -1.49689898003342   -0.93769629066220
C          -7.32156509044373   -0.81484858534405   -0.36953431377885
C          -7.94780991164581    0.38490022720506   -0.74910648610944
S          -7.87670451407400    1.10451762762328   -2.33196233939934
C          -9.13579504099087    2.19254435879862   -1.91734455072062
C          -9.58480667791217    2.07268154914710   -0.63527529529459
C         -10.64160520536703    2.92798312014309   -0.02005660076228
C          -8.88678910613558    1.05635930991201    0.06712874396866
C          -9.07952275639051    0.74163235122754    1.44572795429110
C          -8.07576692581453    0.27623041509897    2.23856962917902
C          -8.24048803796367   -0.36848795741066    3.48058672998692
C          -7.18685390353292   -1.03081844705681    4.04498553104751
C          -7.27187893701342   -1.93603492490125    5.11239071168011
S          -8.78102729252903   -2.14184620403896    5.93733700730672
C          -8.15885960579655   -3.38975570332644    6.98289034257134
C          -6.76391683490906   -3.53178322603388    6.77691342659760
C          -6.27852568714897   -2.78810649042527    5.65487539336455
C          -4.92243584570515   -2.94595414435829    5.26509525027373
C          -4.31630480423320   -2.39775111072263    4.02309485832809
O          -4.84378240025694   -2.38063115456372    2.94094216253011
O          -3.06099209560692   -1.93074513652938    4.15272912412656
C          -4.10142643356862   -3.74166391986348    6.04984560829759
C          -4.53595141434113   -4.31459458948647    7.23738721892613
C          -5.85196851094721   -4.18437593023252    7.63685541274497
O          -6.19217808015003   -4.63580882634634    8.85782776315215
C          -9.09525920677518   -4.10003530505206    7.73887160701743
C          -9.08377007221162   -5.41572263942905    8.17467799319656
C         -10.13902050825031   -6.02094756770504    8.89360648318216
C          -9.96707101918178   -7.35515381806788    9.12717592911130
C          -8.76745815554919   -7.87175999527986    8.60140995780783
S          -7.86580674356070   -6.62256714470969    7.79065455906217
C          -8.28399608406835   -9.17129166052904    8.69809895594812
C          -8.89892393514796  -10.27507721993427    9.31696757141649
C          -8.14861639509281  -11.41696868591596    9.26999570021582
C          -6.90871790631970  -11.26337816601837    8.61680849177545
S          -6.73098403060446   -9.62571968301777    8.03844241655612
C          -5.94723008023928  -12.24420776559862    8.43918650530384
C          -4.72134833736490  -12.01836722206965    7.83076882933117
C          -3.70282011080616  -12.92255374057034    7.60001954689664
C          -3.65631029782552  -14.35568912727555    7.65103138619148
C          -4.70294310589664  -15.23421899856384    7.47642224045668
C          -4.57172455893597  -16.63460575169772    7.52899736834257
N          -4.53561421124124  -17.78179839850442    7.58514423791037
C          -6.01202812631360  -14.85950624184679    7.11801198474264
N          -7.08493033637221  -14.62787710424153    6.77763229219702
C          -2.24619005111368  -14.74578439479633    7.71269257789902
C          -1.44887618904168  -13.59268483494389    7.50808155839346
C          -2.33289072979534  -12.41416459236965    7.37569487472629
O          -2.00282830529704  -11.26458633399437    7.17318922033288
C          -0.07770914417288  -13.63892645204502    7.47393127204754
C           0.53861916132914  -14.88151106494470    7.66256101961944
C          -0.26533376496000  -16.02361302288309    7.87951907535805
C          -1.65508931637535  -15.97836487929363    7.90480501282779
S           0.69973665636131  -17.45205817719848    8.10206840133929
C           2.15088457245942  -16.50680150636123    7.89866547512378
C           1.92702300053166  -15.19039818755694    7.67770285828291
Br          3.82513078561277  -17.34749326096904    8.00308777296245
H          -3.34426159871581   -1.29031165786820   -3.94998452893071
H          -3.58511362186081   -4.74711130016950   -0.33188298075538
H          -1.03965009260067   -2.66647337488617   -4.76149154589632
H          -7.73557445784125   -1.25425080131402    0.52992180105877
H          -9.47729101859697    2.90106039690965   -2.64780301599304
H         -11.00947636990745    3.65324138620492   -0.74047627712843
H         -10.24472143583547    3.45992022485475    0.84350464520803
H         -11.47720712422353    2.31489103498712    0.31605064736305
H         -10.07459392813793    0.86393714722350    1.85241658697130
H          -7.06118569200727    0.32082920867409    1.86213725584677
H          -9.23394765067581   -0.45644039434356    3.89916809233832
H          -6.22434609150634   -0.91393179923469    3.57602648264567
H          -2.73395255855724   -1.98689642873347    5.06116932516033
H          -3.08325469594456   -3.93224430019678    5.74004162758813
H          -3.85478054328292   -4.85631828527792    7.87194922235207
H          -7.11130288639042   -4.41830284746390    9.06220222271615
H         -10.04159268169974   -3.58969814305002    7.88079950240575
H         -10.99327837920231   -5.45399959369807    9.21898140060186
H         -10.66886309865453   -7.96929598964105    9.66097000524324
H          -9.86680602389684  -10.20741042411498    9.77984951340221
H          -8.45068960650029  -12.36248099798570    9.68327156997828
H          -6.18059121437250  -13.21904756789658    8.84122746587187
H          -4.47293352323788  -10.99088307610165    7.57972129735226
H           0.50373264476384  -12.74565371385954    7.30778265065099
H          -2.22412528505154  -16.87678010246139    8.07693718229453
H           2.70633531931109  -14.46481040432667    7.53177374410542
