91
 SCF done       -168.117827168286          0.000931068576
C         -14.31952939643304    6.76219321895775    2.67507083994647
C         -15.60269318775764    6.51450890853847    2.25576330509229
C         -16.75446216983950    7.03770849486798    2.87839611869693
N         -17.72838137540469    7.44182993312934    3.33214754565907
C         -15.94870493387673    5.71488002180735    1.14882359963475
N         -16.28795561543017    5.07440698677693    0.25712616065352
C         -13.94748076496421    7.55531269213798    3.84021814890096
C         -12.53510626240078    7.56836864060680    3.95339435083040
C         -11.87569116193898    8.23032121401136    4.95954565569182
C         -12.64818881311298    8.90818968643972    5.90863500176092
C         -14.05845557130514    8.89108746438148    5.78900376227790
C         -14.72436278145084    8.22545565416332    4.76714738419579
S         -14.81825429168253    9.79268160864480    7.06488510666258
C         -13.25357547423817   10.17304750446020    7.73363163464339
C         -12.21388645426344    9.65341190363910    7.03814785397038
Br        -13.14008836665303   11.22354274765952    9.28244971582481
C         -11.95141111994340    6.78262000081124    2.85440651387891
O         -10.77044629940575    6.67123738649484    2.58331696549378
C         -13.09629636814273    6.25634206167460    2.08496242807873
C         -12.98986883727918    5.55160661304864    0.91683040911797
N         -11.88081893733558    4.93289185497016    0.45915464082299
C         -10.82508013748530    4.43909905406154    1.18371747579352
S         -11.04790525459716    3.80282007297325    2.78015020110536
C          -9.41557911878322    3.22998378564436    2.76207406326749
N          -8.93905973046930    2.59154066534420    3.91408755816283
O          -7.79223635160462    2.18646222972779    3.90542301229715
O          -9.71932401447969    2.48937737488682    4.84530114390706
C          -8.75579474363944    3.49321680083809    1.59224062918913
C          -9.55192988035284    4.19671096205225    0.66730955841508
C          -9.06591149976790    4.60713487605269   -0.62630506489904
C          -9.54498057763696    5.61494309608223   -1.37935559393013
C          -8.98714663660565    5.94276833711921   -2.65920849029283
C          -9.40042990685124    6.90167389978246   -3.50264836116778
C         -10.56455430183404    7.81407655129436   -3.28652179063472
C          -8.66801500221920    7.11240922715646   -4.80354527812651
N          -7.24810040554479    6.88790098212397   -4.64780038550691
C          -6.39252184292924    6.98867834189584   -5.74165035766169
C          -6.76411695409003    6.96522944122301   -7.02494464209766
N          -5.91557025199068    6.86683808466268   -8.13843135154703
C          -4.48360549632630    6.94067021487160   -7.88253969371881
C          -3.62144680019594    6.73690160359333   -9.11893396781848
C          -6.40583968918627    7.49801485019707   -9.29717644620492
C          -6.99320933509453    8.72884927673172   -9.30796404452317
S          -7.53072862437100    9.19972122287028  -10.86676493810547
C          -6.98100756076629    7.71930740685221  -11.53542893394403
C          -6.40604360013330    6.90351012284250  -10.60512120882204
N          -5.90769753633860    5.62405070925911  -10.86658036492733
C          -6.43826879152411    4.51569524053356  -10.08844470045621
C          -7.81147927269524    4.07746866200630  -10.58854185137115
C          -5.22301687892567    5.35826419116033  -12.01685350530228
S          -4.43636364392446    6.62489299004193  -12.93921925898203
C          -3.69786561065492    5.52734233362220  -14.05256273682994
C          -4.02022053361377    4.24111825692022  -13.72198679487936
C          -4.87655271426457    4.15462179536988  -12.57292080056006
O          -5.17161086408638    2.84828541363462  -12.29384956668762
C          -4.51853889841573    2.13163387767891  -13.24477141634580
N          -4.64370424576045    0.72375589633893  -13.19248061307313
O          -4.05452882960288    0.09176308491729  -14.04988778310056
O          -5.32356442260992    0.24702966367896  -12.30777571389632
C          -3.81088120784355    2.89362362349252  -14.13134310468816
H         -10.79873411793415    8.21931099453894    5.01788067204116
H         -15.80018697978104    8.24330454870666    4.72043890847108
H         -11.18300995604499    9.78828892757978    7.30988363729454
H         -13.84103969287314    5.48002612321487    0.25241211276131
H         -11.84333831598859    4.72028671988389   -0.53261372219393
H          -7.73283714794549    3.20891295865646    1.42440302266188
H          -8.20629950129838    4.05458436783106   -0.98207472429471
H         -10.33825922945969    6.24133814756251   -0.99963853832468
H          -8.14236115139159    5.34027304111195   -2.96701169392517
H         -11.15913381753365    7.53330231920797   -2.42370834040100
H         -11.20567840405034    7.80882528800632   -4.16764838828974
H         -10.21362953308686    8.83672798082782   -3.14322181496006
H          -8.88677228851127    8.12035542872014   -5.19346664673977
H          -9.04070768781562    6.38932107979773   -5.53968971681557
H          -6.87802897676354    7.32668941497348   -3.81548825599480
H          -5.35403031087857    7.00505540985758   -5.45210837639911
H          -7.80652816633469    6.95610066524492   -7.30460198484540
H          -4.25272346147046    6.15665867188016   -7.15544385470573
H          -4.23347064202362    7.91380989235960   -7.43010115551511
H          -3.77557309915524    5.74848430811852   -9.54047681969160
H          -2.57602012640425    6.82981356428455   -8.83546149411976
H          -3.83641199540740    7.48413041189100   -9.87920507808245
H          -7.13335145188857    9.38653982287176   -8.47324539789402
H          -7.12263848951492    7.52956315026825  -12.57995058734319
H          -6.50148784365276    4.84823793300301   -9.05072141243670
H          -5.73759901952032    3.68250797300329  -10.15005338873903
H          -8.51336516065818    4.90798237253367  -10.54885085519126
H          -8.18737109326987    3.26953197078270   -9.96782011577704
H          -7.74779405523231    3.72146932530494  -11.61357614398971
H          -3.09830673838920    5.90489108383345  -14.85238849156627
H          -3.22849219666224    2.52710728766030  -14.95084337894035
