117
 SCF done       -216.087849923209          0.000579549001
C         -10.39982936634335   -1.35420039112058   -1.99593967902809
C         -10.28862841265005   -2.44162700064620   -1.16801245296302
C         -11.34400521776407   -3.33004818876556   -0.87898104812584
N         -12.16689408632382   -4.08302136356595   -0.60736795478896
C          -9.10416377653342   -2.80515657036496   -0.49567600712864
N          -8.16227142719051   -3.13694676063713    0.07047406309277
C         -11.61063776871385   -0.93758799616332   -2.70031027826023
C         -11.33227984432628    0.24352657277428   -3.43589385108941
C         -12.27827197545459    0.87527383643654   -4.20614641856425
C         -13.56003504046655    0.31700967230219   -4.25596078282687
C         -13.82803612437370   -0.86109432441443   -3.51977816172418
C         -12.87110160372858   -1.50030626377685   -2.73929577927066
S         -15.47160071432416   -1.38279306872215   -3.72431745500236
C         -15.77373107232181   -0.03039731779478   -4.78205760144095
C         -14.69959164716566    0.77253847041676   -4.97314429780384
Br        -17.47661745761839    0.19610556551941   -5.53450602884668
C          -9.92608605278594    0.61241280894772   -3.22458314112168
O          -9.32957259036026    1.57635037886415   -3.69694676132558
C          -9.36561705557428   -0.40557331723274   -2.33458655052948
C          -8.04382553568951   -0.38655743296422   -1.95461586778656
N          -7.22708348159160    0.57739129323650   -2.38871966113921
C          -5.90234582409455    0.70663754965252   -2.12033253260659
S          -5.06992015002499   -0.41577499687124   -1.08918572996127
C          -3.60435372044392    0.47183750447800   -1.35075304165844
N          -2.43990770567978    0.01773952664213   -0.71274783402024
O          -1.41490547182018    0.64454020646627   -0.90020653598264
O          -2.54731871623122   -0.97622966399995   -0.01812765672450
C          -3.75035881679907    1.55305152185402   -2.17536897838780
C          -5.07383197519581    1.71466931590016   -2.63614152044333
C          -5.54648535453408    2.74943292524579   -3.50657187183017
C          -4.76382592344894    3.67392939346994   -4.10797533781487
C          -5.26482687334934    4.69473975787572   -4.95666634330340
S          -4.17986013745432    5.76882751730048   -5.79135087346085
C          -5.47870027734374    6.63782602257215   -6.55357004077730
C          -6.69662679786799    6.10450611554989   -6.16195487819760
C          -6.57774510289922    5.02265719335509   -5.26640588296514
O          -7.65401299084050    4.37340563389833   -4.74565555964844
C          -8.87385000786465    5.05166731698136   -4.97290567704773
C          -8.93186611423688    5.58877728838454   -6.40192639475902
O          -7.90874182806687    6.54290190854037   -6.61795641593779
C          -5.18139927886502    7.70997516252353   -7.44137081150579
C          -6.09319873257024    8.55262469801876   -7.96680587698414
C          -5.79539886297369    9.63495344043523   -8.87616924136753
C          -6.72792767652349   10.67596293893820   -9.01370279720889
C          -6.45529430233577   11.73542059684299   -9.84543654892902
C          -5.27920058174775   11.73854881201189  -10.61790234637498
C          -4.35789167879006   10.70622602331505  -10.50679071942844
C          -4.61343008461016    9.67516217695668   -9.62787679263430
C          -5.28822367094154   12.90242175393508  -11.47305156477638
C          -6.46211150673636   13.63356560153458  -11.22031055579738
C          -7.26889259906439   12.98153352350842  -10.11636094342001
C          -8.70372673633072   12.65860841563257  -10.55741706060769
C          -8.74337681907599   11.80061365318501  -11.81693956859792
C          -7.24546852511423   13.95166637455847   -8.91073382013692
C          -7.83796683248369   13.41652488482100   -7.61406950808921
C          -6.71371830188296   14.79726365074553  -11.90222429475288
C          -5.80553603786567   15.24497716794897  -12.87758836254644
C          -4.64493735357590   14.49601941218395  -13.12457765031222
C          -4.37783070362168   13.33815407814207  -12.42764087085869
C          -6.06516202577821   16.48940620466263  -13.54888797373190
C          -5.46137172863675   16.93683440225905  -14.67482451286059
C          -5.73815319935520   18.17795502745816  -15.30599094334652
C          -6.20025090147105   19.34807878015056  -14.78168324558588
C          -6.33830441573697   19.84866879568180  -13.42984872199984
C          -5.59180816711615   19.49528769282241  -12.33493097171826
C          -5.73185573520262   20.08444907230095  -11.06234358208766
N          -5.82013936638897   20.51122882974176   -9.99996858681406
C          -4.54069941203518   18.55710244043296  -12.35594092460897
N          -3.64635174889755   17.83916162118033  -12.30912841169055
C          -7.23882471665439   20.99801544608363  -13.48254180722241
C          -7.46521566266087   21.33876853291050  -14.83939744560325
C          -6.76607909930734   20.36805833998306  -15.70496650906714
O          -6.69772175889628   20.36908876187305  -16.91323528681412
C          -8.23396503876350   22.41419851187976  -15.21261744652765
C          -8.81564979600154   23.18365047075210  -14.19948764654000
C          -8.59830713447207   22.82448279088483  -12.84797107763477
C          -7.81508490111985   21.74101333898640  -12.46978275015507
S          -9.41899291498915   23.90294768784915  -11.76014483631061
C         -10.02767314512308   24.81384283975175  -13.11664592390354
C          -9.64173721453279   24.33456735549123  -14.32272734901474
Br        -11.12006698783581   26.30783893464650  -12.81150239151556
H         -12.03949787287321    1.77137281073773   -4.75735965135387
H         -13.12406511186877   -2.39667082614885   -2.19842054615614
H         -14.71018679267633    1.64927952834270   -5.59453146757379
H          -7.61853468422311   -1.14273710650179   -1.30757603774867
H          -7.68228049755382    1.27226939966932   -3.00559245906405
H          -2.92717540678882    2.19764744206889   -2.42156842505519
H          -6.60750320556092    2.78836790453216   -3.69641664886009
H          -3.69188450825006    3.66780451483300   -3.97356912786596
H          -8.96991354093814    5.88650552008990   -4.26567815549869
H          -9.65829561190477    4.31708511682999   -4.78784759848461
H          -8.81698938006176    4.75544779426894   -7.10821274253135
H          -9.87401927520325    6.10433557227267   -6.59052976204653
H          -4.12999591757764    7.83221554668740   -7.66163289397744
H          -7.12707840947127    8.44699789040682   -7.67015059855130
H          -7.64959493533886   10.62689888672013   -8.45291957375741
H          -3.45750060994841   10.70765253873608  -11.10250004987850
H          -3.90532256714771    8.86536814578104   -9.54478365600335
H          -9.23741849480250   13.59439887025161  -10.73678023661414
H          -9.21464815101644   12.13016407909656   -9.75164410137251
H          -8.26595837205277   12.31419711829990  -12.64859322937149
H          -9.77328300986778   11.58408777550179  -12.09163628318500
H          -8.22458567013633   10.85838786432781  -11.65402034715911
H          -7.78494297548161   14.85559192498112   -9.20259882683474
H          -6.20526806025194   14.23449090430340   -8.72931910507789
H          -8.87322918406715   13.11236508419176   -7.74506154237623
H          -7.81051372212808   14.19909312946190   -6.85887576035130
H          -7.26334789084321   12.57179984475350   -7.24438487902549
H          -7.60756994306761   15.37354730044807  -11.70771083340376
H          -3.93072005553827   14.85350140099499  -13.84871849167506
H          -3.47190399196684   12.78249912369975  -12.61639541889480
H          -6.85467861267894   17.09373108476258  -13.11579283260910
H          -4.77837826842061   16.28840308647571  -15.20544825572351
H          -5.61339421035302   18.19997798280744  -16.38537403295296
H          -8.38004159860747   22.65663092384324  -16.25347070536074
H          -7.68203930455284   21.50399769545534  -11.42726707325274
H          -9.92613075986373   24.77292524910040  -15.26180214738261
