159
 SCF done       -252.262857464097          0.000470957318
C          -1.14987959829955   -0.79482747353434    0.15766811672309
C          -1.16067234606164   -1.69975890664040    1.18684134606713
C          -0.32675873254022   -2.83562464487163    1.24819692387211
N           0.32735054840185   -3.77317012979951    1.35405779914948
C          -2.01692490208726   -1.64712963762391    2.30717940070750
N          -2.68480061669117   -1.68638925008489    3.24073495905287
C          -0.33314788468177   -0.88879592692875   -1.04490611445793
C          -0.70542218433738    0.15386489484042   -1.92658427629864
C          -0.11471679040884    0.33488396955081   -3.15344023815854
C           0.89163109276605   -0.55973531794617   -3.53082199569471
C           1.26003092568735   -1.59797500844277   -2.64203160169727
C           0.66404636268893   -1.77898470400653   -1.40048379611988
S           2.52770409636966   -2.58548689765577   -3.30431441374766
C           2.54260336092433   -1.60552521510545   -4.74658537250276
C           1.64689503983488   -0.59012548691275   -4.73505951763563
Br          3.74022806988360   -2.01462945988378   -6.13085214586455
C          -1.77861923962851    0.96593640584634   -1.31614285127383
O          -2.29270813278224    1.94455078568818   -1.81077716181900
C          -2.00285000769641    0.37611024998226    0.03017165894020
C          -2.69776391890056    0.95374295515381    1.04858513030634
C          -3.61037121321376    2.05885878875577    0.97796485007695
C          -3.67839701282365    2.93354670652030    2.07937347997404
C          -4.50072865862265    4.02765674972092    2.02156906527348
C          -5.31509062956097    4.25019643561241    0.89383761747479
C          -5.30990526630623    3.35202479015938   -0.16525672704417
C          -4.45520663298942    2.27109327666927   -0.12149137587901
C          -6.04724715888283    5.47959421907895    1.09250708973380
C          -5.68237752748642    6.02315808584049    2.33656540524064
C          -4.68990618910355    5.12738817967850    3.04004529934348
C          -5.26943789624334    4.57700627313528    4.35728953302249
C          -6.58237671793373    3.82882162195183    4.16056006893003
C          -3.36745720483086    5.86269076769172    3.32465480467590
C          -2.73146838965846    6.44329911111014    2.06721917559715
C          -6.19982980950209    7.22561229805367    2.74916809553018
C          -7.10030943681978    7.92192461112401    1.92707250665851
C          -7.47015877439519    7.35283400541804    0.70056719797323
C          -6.95445353922353    6.14508847033918    0.27893369287110
C          -7.56126707278399    9.22119753793623    2.36484443957545
C          -8.49102849708466    9.98753646868461    1.77040583178913
C          -8.87984310127603   11.32405518228503    2.16826788730954
C         -10.00336323766583   11.90367217105903    1.55755172294180
C         -10.36595368647360   13.19538835496218    1.85731435090645
C          -9.63339196870056   13.92163260834540    2.81114826465373
C          -8.53049199271559   13.35838724385470    3.43597350186421
C          -8.15755083519850   12.07286823087413    3.10503837381578
C         -10.22788532950485   15.23091601829598    2.95554880492688
C         -11.33942717852477   15.31754021842802    2.10110008577692
C         -11.53147776480674   14.01856178542567    1.33996830123429
C         -11.42514529284784   14.33628591188072   -0.16592802032892
C         -11.55002450418368   13.15457918908227   -1.11913203786343
C         -12.83086875225982   13.28675443494673    1.73652005292169
C         -14.13252100326625   13.98951616829768    1.37355823774864
C         -12.03606035663313   16.49936709160988    2.00423040509533
C         -11.64908941219096   17.60857842884281    2.77036524247585
C         -10.56370130861277   17.48746652289233    3.64486889126425
C          -9.84979616241863   16.31120536612942    3.73939695284217
C         -12.38452659414163   18.84908765885008    2.62381581443440
C         -11.91510126371435   20.06885580541711    2.92829146848407
C         -12.62746909985362   21.31968367256167    2.77070524100680
C         -14.02352623212109   21.38032557861376    2.65721780782537
C         -14.63932601298886   22.59933394882242    2.51462437537146
C         -13.88485261982478   23.78511027822622    2.46892559025588
C         -12.50274088664082   23.73961258785363    2.58611269828820
C         -11.89239819605159   22.51271056983257    2.74540197363737
C         -14.78942750617223   24.90053914510480    2.30992854996991
C         -16.10692857787657   24.40755066777169    2.27601814394990
C         -16.11512277508236   22.90234630261507    2.39969487734039
C         -16.73108902028494   22.24366971172505    1.15096769106349
C         -16.04156254141007   22.66296015125791   -0.14171140045770
C         -16.87907066651104   22.44445125234992    3.65623004124987
C         -16.32605262389692   23.05314438730770    4.93934014538266
C         -17.16684583882247   25.26584221700923    2.14175231233551
C         -16.93662542761883   26.64764026954262    2.00800801660615
C         -15.61581966879798   27.12140368866590    2.04111413125990
C         -14.54817058915682   26.26385515658336    2.19579570728263
C         -18.07178702541137   27.50219350137563    1.80739833434023
C         -18.05760317533365   28.82439760938254    1.50851903265573
C         -19.20909100761310   29.63105049329294    1.33407630457496
C         -20.50232479057697   29.30261292061649    1.04337696286979
C         -21.15411450975445   28.10646138107471    0.55780735629195
C         -20.61190413819481   27.12813362849816   -0.23758280270902
C         -21.33397760723653   26.02457634176043   -0.73325933604662
N         -21.86423292739853   25.09079481857834   -1.14047137316340
C         -19.28402291808190   27.13372842643565   -0.70755160138731
N         -18.22231137824785   27.09599665600292   -1.14251639036883
C         -22.58042401939085   28.23976527822011    0.84855913747829
C         -22.83550551857690   29.56533383688440    1.27864771077410
C         -21.55974798001389   30.30673089639093    1.33776355195652
O         -21.39535467259480   31.47436261510893    1.61097466249924
C         -24.09614139574967   30.01073648999414    1.59246374712095
C         -25.15376261827704   29.10071528535303    1.48981150848382
C         -24.88639430369225   27.77452639862817    1.07543951664818
C         -23.61221197749530   27.32645826616753    0.74831304716932
S         -26.33420729467908   26.81441990340757    1.03207465293642
C         -27.26690440821208   28.19033540613647    1.55924634535888
C         -26.53417645763040   29.31095643143973    1.75962580630944
Br        -29.11934876169731   28.01533395371704    1.79728248731448
H          -0.42147344272440    1.14080170427643   -3.80162627456940
H           0.98465561584147   -2.58084945576987   -0.75672428529591
H           1.52256430438487    0.11002602832056   -5.54087115517884
H          -2.51217775840619    0.58393747219636    2.05094650924758
H          -3.04843679696587    2.75260353909285    2.93872955160567
H          -5.95806535668724    3.49960570906629   -1.01545913256841
H          -4.45731188169754    1.55842452808097   -0.92942717373282
H          -5.42776339507679    5.41172030247404    5.04347191795976
H          -4.53511594712883    3.90706700235704    4.80936883971394
H          -7.33610280731789    4.48190774990861    3.72601550874151
H          -6.95154124361562    3.46559214433020    5.11676562777164
H          -6.44449979615999    2.97603104174797    3.49954221160201
H          -2.67210935635079    5.16363624354961    3.79414548780865
H          -3.56151718003693    6.66718152694178    4.03718034019542
H          -2.51214178184922    5.65751050495022    1.34765332280478
H          -1.80203900575842    6.94953622998690    2.31781318769858
H          -3.39857849843772    7.16178003508307    1.59600881180114
H          -5.91329544674731    7.65207220430933    3.70040083098771
H          -8.15917039456758    7.87875399588952    0.05821230615758
H          -7.24249776894357    5.73133018446358   -0.67598026341575
H          -7.07701824123692    9.58374753255755    3.26213831762190
H          -9.01912819843511    9.60580093706910    0.90620694104964
H         -10.57520262803724   11.31093057767321    0.85887146457362
H          -7.96803468934958   13.92013581566711    4.16700725348262
H          -7.28467902238827   11.64435866144345    3.57244949301814
H         -10.45809342357488   14.81986258657348   -0.33022523644645
H         -12.19647655199171   15.06886400565812   -0.40984647635192
H         -10.71487436153802   12.47003466941766   -1.00413631737964
H         -11.54335666856046   13.51937905953623   -2.14454761430420
H         -12.47838641264924   12.61191473564210   -0.96153823680209
H         -12.80322089834397   13.13532356240935    2.81930087023260
H         -12.81755220332474   12.29871439292374    1.27299237668572
H         -14.23262274143956   14.92554531155730    1.91542673333684
H         -14.97268265755435   13.35341584280603    1.64557461227890
H         -14.19298440295624   14.18916364561489    0.30694573578362
H         -12.86543242267556   16.60675928029585    1.32054972299019
H         -10.28442995355332   18.32730010255817    4.26269892374465
H          -9.00510755744230   16.23536220016022    4.40797857462104
H         -13.36781205030848   18.75113768918130    2.18178805262024
H         -10.89784845690099   20.16786347643801    3.28411411653652
H         -14.60766194353350   20.47386966379054    2.70499321771583
H         -11.91588143732558   24.64560733053760    2.55948910998552
H         -10.81700058914638   22.46150210187677    2.84142887358502
H         -17.78873623830350   22.51044683421097    1.09891120008643
H         -16.66592391342543   21.15913162984810    1.26262608309122
H         -16.12819136199113   23.73633604632963   -0.29453167872773
H         -16.50100081293565   22.15933912362585   -0.98893344633776
H         -14.98552189583456   22.40246934276047   -0.11652679853177
H         -16.82565874857602   21.35568230211251    3.72024741244053
H         -17.92995035786130   22.72066867360643    3.54665659523349
H         -15.28463471396669   22.77216342179061    5.07970728726269
H         -16.89581997588733   22.70134090940346    5.79635030045987
H         -16.38669518182690   24.13892241131634    4.90768991459522
H         -18.18110358781685   24.89268958264932    2.11368755652727
H         -15.42924239539207   28.17998327599060    1.95243996989835
H         -13.53910209531348   26.64690435825224    2.22321947989321
H         -19.03302415275600   27.01773078470415    1.93304386650672
H         -17.11423939031219   29.34939045819181    1.46024220880342
H         -19.06938243116719   30.69233406027741    1.52366064177162
H         -24.26218700494709   31.02860351964629    1.90844687200913
H         -23.45720659261654   26.30500197698640    0.44264375470356
H         -26.94732429863818   30.24824130038001    2.08481333851229
