116
 SCF done       -203.401872602085          0.000980988024
C          -5.85997116668808    3.97445804301692   -4.73146104598065
C          -5.88321902132883    2.79057865415684   -5.42912381127210
C          -4.74547499078140    1.99939470716892   -5.68414091381012
N          -3.86013054456840    1.30805620640021   -5.92525389586205
C          -7.02409959428109    2.19337733608728   -6.00189202222958
N          -7.89407946793435    1.63985851035766   -6.50928108226889
C          -4.66009670065085    4.58871591434938   -4.16665011212775
C          -5.01949722239056    5.82009533154209   -3.56884398753475
C          -4.10913706815705    6.63498445354218   -2.94278330257993
C          -2.77584151021521    6.21304955815828   -2.90073590993791
C          -2.42547727878005    4.98143763620146   -3.50010449103916
C          -3.34701496723888    4.15822701821800   -4.13624310428686
S          -0.72758705424557    4.64749571464673   -3.32899024796028
C          -0.51703682349859    6.14796370592948   -2.46627093015390
C          -1.65572973651619    6.86324376228207   -2.31270196890017
Br          1.18744737746300    6.62709870860704   -1.84497026327023
C          -6.47494410696933    6.03405611445085   -3.72672257383021
O          -7.09769186092863    7.00140516989376   -3.33670700754918
C          -6.97903555026848    4.83882066362563   -4.43422334051830
C          -8.30374572853773    4.58771785246463   -4.70400542745277
C          -9.36932823250197    5.43800770797789   -4.37537300676475
C         -10.66985629480921    5.07265182007173   -4.59066380057658
C         -11.77833593073011    5.85708287978556   -4.23667760003645
O         -11.64070521797463    7.09975206210867   -3.69961087461735
C         -12.87303111792233    7.58095081793656   -3.41739882142299
C         -13.83573948193553    6.63340005230273   -3.77281438198816
C         -13.14055132168036    5.53643174015810   -4.30601739387826
O         -13.65867118657154    4.39196368916617   -4.78322151718248
O         -15.18591651892752    6.68493502728556   -3.65995091759351
C         -13.07915660237682    8.85880443943374   -2.84956487781647
C         -12.11317667072252    9.78349087364754   -2.60519483730987
C         -12.37117218622165   11.05379147585601   -2.01635909441433
C         -13.52495611148969   11.32998450750857   -1.35973911584543
C         -13.93579078652907   12.55715629537366   -0.79342996410496
S         -12.92176261444405   13.98027338467977   -0.77150622420540
C         -14.12263556075824   14.89700605251838    0.10096843002698
C         -15.24585383415881   14.12511077885841    0.33290576768616
C         -15.15007750418031   12.82213688804554   -0.18207999214906
C         -16.39789798752343   11.98382460222124   -0.08849942060754
C         -16.41572238905009   10.75672028386782   -0.83952188477685
N         -16.50933004135184    9.78540989875761   -1.44086721590497
C         -17.55022447605544   12.88180510009327   -0.59717759911539
C         -17.74980090619919   14.09973745072036    0.30955985876117
C         -16.48606068886046   14.50905320505892    1.08473486633140
O         -16.53133908800604   13.82525777069924    2.33627677822207
C         -15.57903529207069   14.26988215946715    3.26524568749240
C         -13.92972794154840   16.26198325990968    0.44265394792097
C         -12.95783104133041   17.05016230970079   -0.06674445412855
C         -12.80259112202558   18.43737562523958    0.21082351135828
S         -11.19552158474390   19.11367808146723    0.07905338338311
C         -11.72588266922090   20.66623212716376    0.67687063365128
C         -13.09238314599751   20.64162620278565    0.91653181134391
C         -13.69917537244654   19.40483760465422    0.62772935297100
C         -15.20529381564061   19.37337519624084    0.66846186675154
C         -15.84274637602968   18.32276507017220   -0.08678457830365
N         -16.44248325985254   17.56812919822685   -0.70381891578068
C         -15.69282407849899   20.70645258091660    0.05726588303592
C         -15.28582334518578   21.89311585157798    0.92508934455657
C         -13.89995386605857   21.72504131804936    1.57316975054327
O         -14.14384680753075   21.37677884107340    2.93650720504835
C         -13.01236807989068   21.43694712221849    3.76414540643490
C         -10.82227905293517   21.73952021785644    0.83985625575144
C          -9.50258689583242   21.69898143331595    0.50014802613538
C          -8.62536184359543   22.78148935283864    0.65822812281879
C          -7.30729337604444   22.77677415550886    0.27819063859464
C          -6.38261653496673   23.84417212249566    0.41073173322595
C          -5.13993228040932   23.57326106505696   -0.06759981073083
C          -5.00368463561279   22.27172529227746   -0.61120611468750
S          -6.52114631123664   21.40163614715331   -0.48069800007184
C          -3.88578744427929   21.70982850668037   -1.18069765771594
C          -2.60823978649752   22.31459125009224   -1.35122695644439
C          -1.69438520852190   21.52511845784731   -1.95663862713137
C          -2.18016238338958   20.22317184702994   -2.31539241774102
S          -3.87585470704144   20.08061888995438   -1.82368949776379
C          -1.50927810096076   19.23665289652575   -2.92494564638554
H          -4.41612720482235    7.56772253415782   -2.49608606683682
H          -3.02814421777631    3.22776992522073   -4.57495210198672
H          -1.70715938642031    7.80936757267819   -1.80537588700891
H          -8.56334728235520    3.65297433889948   -5.18464589617964
H          -9.15620923873373    6.39188619394505   -3.91740456353119
H         -10.90609134103939    4.11450563879175   -5.03370638131398
H         -14.62118359272791    4.43557791990188   -4.70211583730424
H         -15.46083554108984    7.49687247512721   -3.21506860327943
H         -14.11264500255139    9.08921003226203   -2.62754820987957
H         -11.09860457665494    9.56003061988271   -2.90219892439685
H         -11.60545330291831   11.81362336899377   -2.09553871354972
H         -14.23201526138992   10.52916766213574   -1.22120410297367
H         -16.58209014498445   11.73881739108739    0.96681472318457
H         -18.47359946949643   12.30282172839854   -0.64964250563060
H         -17.29915966979391   13.20632417827203   -1.60983074093710
H         -18.51174606864290   13.88692490241118    1.06058557011311
H         -18.07971767442587   14.94691662413446   -0.29020531427175
H         -16.51102112326625   15.59210526204780    1.26933228943154
H         -15.73915636464627   13.68911277534114    4.17139607757417
H         -15.71266115235907   15.33598862535374    3.48823046121630
H         -14.55452357910130   14.11192040333142    2.90807714058724
H         -14.64275595705944   16.67333509566778    1.14164341936139
H         -12.20021691249055   16.60571992333286   -0.69982558261570
H         -15.54538753615886   19.31180271390567    1.71159002555864
H         -16.77832530366559   20.68856726930074   -0.05526297528011
H         -15.25363979857168   20.80037778724861   -0.93927168471444
H         -15.99320433797294   22.01222168669592    1.74752247804947
H         -15.30606887309207   22.80106862173352    0.32273685458932
H         -13.35552986525747   22.68056208857334    1.54898551062048
H         -13.35249699681634   21.17651884524190    4.76448356313743
H         -12.58552977134363   22.44762371633947    3.77688147543369
H         -12.23494114247033   20.73151193360739    3.44892684645054
H         -11.22448211302629   22.65561404724621    1.25190019372467
H          -9.09948244632080   20.78820313875316    0.07419913876965
H          -9.00890124440915   23.69103003672178    1.10299676964065
H          -6.67270674984299   24.77967595362671    0.85635141114569
H          -4.31974329041545   24.26829320417680   -0.04810797978009
H          -2.41544376411800   23.31862871687082   -1.01711880400356
H          -0.67955052979142   21.80970339705130   -2.17098890712298
H          -0.47946013629991   19.36631853597010   -3.20742020613688
H          -1.97143990800860   18.29319506712209   -3.15021556653245
