105
 SCF done       -188.834228880456          0.000242036240
C          -4.59473603768735    0.85246122291924    2.72323145743396
C          -5.12716618449421    1.38044126887667    1.57380718795967
C          -6.07784597212750    2.42067976624198    1.54841790636096
N          -6.84513581498667    3.27095716908526    1.46352183398415
C          -4.83679480710568    0.93514558576771    0.26757649466873
N          -4.67982122569313    0.60987591057812   -0.82291565125653
C          -4.98832417530140    1.21349422441106    4.08111578030541
C          -4.32854821668521    0.34728098684824    4.98555636603025
C          -4.50637403493529    0.42205300160443    6.34477547570219
C          -5.37570465538531    1.40207589169421    6.83669544223176
C          -6.02241252492610    2.26946487142328    5.92592497020213
C          -5.84489970517752    2.19139784022549    4.54964312047502
S          -7.04030474311491    3.41487243933412    6.74665068053959
C          -6.59078181972952    2.71950910172198    8.28083835662383
C          -5.72418635519047    1.68362468133181    8.18635685644968
Br         -7.30627322185901    3.42844867184017    9.86334127997829
C          -3.45737192343354   -0.57965052514576    4.23312915093712
O          -2.71262958578402   -1.40891999134066    4.71626586144202
C          -3.62517404812963   -0.21790301099077    2.81297391654121
C          -2.85924048166382   -0.67776860328995    1.77192662923520
C          -1.95857192200081   -1.76028411446508    1.75767771829727
S          -0.57222500328198   -1.61864535883849    0.69173537717971
C           0.08876572721671   -3.07207937710662    1.31099975358223
C          -0.70191561454888   -3.67650855215551    2.24117879079783
C          -0.36060516514718   -4.95640164598116    2.92422861705198
C          -1.90588207367539   -2.95386496151849    2.47989860466902
C          -2.97235871488050   -3.49308602523130    3.27600279645088
C          -4.28094196487258   -3.35152726133387    2.98701223994549
C          -5.35680356938827   -3.89825849218307    3.76131907393610
C          -5.24173861674357   -4.31089825413282    5.03600245854209
C          -6.35222983813525   -4.85232694302193    5.79880316720526
C          -7.56796282710935   -4.23838837942433    5.77120167542524
S          -8.76928118364235   -4.97398740499344    6.75820360716758
C          -7.63231627546922   -6.20641608026144    7.21096706994260
C          -6.36004992405855   -6.02327990941748    6.64630725279292
C          -5.32798411485012   -6.93926888115138    6.96314513848871
C          -3.96427884807837   -6.71947061666427    6.36746147571206
C          -3.07838744892671   -5.83542292837514    7.24808344110823
C          -5.58169856450197   -8.01982675207536    7.80070396945980
C          -4.44892087041864   -8.80776307050400    8.40643243229846
C          -4.34888623125138   -8.49123703645021    9.90153991232253
C          -6.90865402659522   -8.28353356865062    8.22654005471263
C          -7.46168143091341   -9.38942727385526    8.97881055188479
C          -8.74304691543331   -9.13471857238821    9.38628066628175
S          -9.40359814281683   -7.66819423388605    8.79190352191249
C          -7.89742140111520   -7.31551727377836    7.99521018705506
C          -6.92732040860358  -10.71368893138542    9.17510667757850
C          -6.23777062774710  -11.40247557824165    8.23362045719885
C          -5.78632768543245  -12.72894919133003    8.40414367816485
C          -5.03095936772807  -13.40213397960229    7.48255537345665
C          -4.57779972419952  -14.74427115190620    7.55970778185579
C          -3.83425469813124  -15.14516261661040    6.49413127670050
C          -3.63993275410491  -14.13822269004967    5.51835761212514
S          -4.45265092974742  -12.66587394471539    5.99024831969201
C          -2.91939536507003  -14.22789844068113    4.34336547179433
C          -2.26524692261636  -15.36052597797586    3.80922240970167
C          -1.64998713337052  -15.12796570952924    2.61882778394193
C          -1.76639242564863  -13.79172404182904    2.15021405888070
S          -2.70683097049661  -12.84628162203833    3.28728188985204
C          -1.24171824015622  -13.33323680299731    0.96888731846887
C          -1.26723251996951  -12.02012223994538    0.46002601792405
S          -0.73201186693619  -11.71942781536791   -1.18966302606609
C          -0.99833025613931  -10.02263731183797   -1.11350974794197
C          -1.47862391157370   -9.67489422215333    0.12576428973101
C          -1.62742072084967  -10.79872381057512    1.00195376879699
O          -2.06048448989627  -10.39703971056456    2.21613974558682
C          -2.20189051116644   -9.04996192275021    2.12566192577593
N          -2.63072006502377   -8.36383620103267    3.27400933198752
O          -2.75299370471168   -7.15051590319815    3.17271311481147
O          -2.83846636943159   -8.99901772949426    4.28713391733424
C          -1.86932264245056   -8.54593200674473    0.89366328603581
H          -3.99132757872778   -0.25397285125830    7.00902166483414
H          -6.35761562770036    2.87789229941832    3.89684382064637
H          -5.34353488706994    1.14043688863293    9.03198013224104
H          -2.86388388756674   -0.09083608671924    0.85969044673670
H           1.04069040022731   -3.40937140491759    0.94782555392991
H           0.51571805637060   -5.41159697969252    2.46935831959009
H          -1.19950360914938   -5.64860930922536    2.87268716339876
H          -0.14762359080427   -4.76704158161358    3.97618336025981
H          -2.66844595363728   -4.12990256686333    4.09204808817254
H          -4.56433002289329   -2.81969696896266    2.08644074471653
H          -6.31414853987675   -3.98276608935506    3.26261902294851
H          -4.29957224128781   -4.18463346736654    5.54470738805406
H          -7.81599702169915   -3.33842811360168    5.24234065953121
H          -4.08740939738298   -6.25958584585956    5.38602554249354
H          -3.47231262885743   -7.67662182336329    6.19746209407168
H          -3.58089027002761   -4.90244199311766    7.49643731496291
H          -2.14812082719852   -5.60402173293046    6.73339449152225
H          -2.83582036026336   -6.33815099003082    8.18119540904387
H          -3.50564508424084   -8.55158455902824    7.93360137764492
H          -4.58799434006495   -9.87880987000504    8.28777922032771
H          -4.23955706540249   -7.42027818134521   10.06037805615255
H          -3.48758224809224   -8.99627209713377   10.33322994884950
H          -5.24089260016488   -8.82336757495489   10.42756344175515
H          -9.37400122449334   -9.79467930103790    9.95041665108341
H          -7.21357510448167  -11.21552973812480   10.09121914442463
H          -6.03904729417033  -10.94104836592767    7.27432067143103
H          -6.04538230737909  -13.24648390191662    9.31869582350958
H          -4.82316094181814  -15.36829100793245    8.40114121116688
H          -3.41196588821655  -16.12802817870454    6.38563640517445
H          -2.27276836223265  -16.31224459892681    4.30954558305603
H          -1.10748893951416  -15.86830166052477    2.05785852717913
H          -0.75726665463349  -14.06581507021786    0.33730887587698
H          -0.78696573290005   -9.40494169628133   -1.96043650542196
H          -1.90214341940984   -7.51690356379001    0.60131494730556
