101
 SCF done       -204.459501905638          0.000593655985
C         -14.79075169666214    7.39316748653147   -4.41085100244091
C         -16.02582647272748    6.79924108557334   -4.43089138603562
C         -17.17210476078270    7.36765463940494   -5.02192147504225
N         -18.13636583062307    7.76913384191108   -5.49769071467639
C         -16.29117016266853    5.52126407952915   -3.89982120727663
N         -16.54662520491056    4.47732772149827   -3.49554820192712
C         -14.44963039724693    8.68330343409852   -5.00061870128902
C         -13.05601518204770    8.90769063992767   -4.84385524380876
C         -12.42700239451006   10.02958007421354   -5.32753911402615
C         -13.20213799564701   10.96526131406089   -6.02100891137681
C         -14.59373330805596   10.73657333382801   -6.16907000047193
C         -15.23225992716618    9.61180909986442   -5.65829405034590
S         -15.35444981118873   11.99319865781913   -7.08498504100356
C         -13.82097431065446   12.78904684337596   -7.27513946268330
C         -12.78531148925704   12.15922734491596   -6.66694305918985
Br        -13.71053114676957   14.36139758317321   -8.27642960934135
C         -12.46721622687558    7.75712613707330   -4.15984966266770
O         -11.28218588704216    7.56781620793509   -3.89184460389224
C         -13.57171376053381    6.83401955601265   -3.87453873631280
C         -13.35535820230397    5.62996988114382   -3.24962997116736
N         -12.10541452804231    5.27985323449518   -2.92260178933156
C         -11.66543522738388    4.11760949266462   -2.38736377991149
S         -12.73928233007493    2.90962892050305   -1.77091233390943
C         -11.36665607154007    1.92426936465252   -1.37895720948217
N         -11.60238405480774    0.68095328893622   -0.77265688336937
O         -10.63555266494543   -0.00592350568192   -0.50436022959569
O         -12.76392707145967    0.38752243537407   -0.55792903312334
C         -10.16541777927239    2.48676258319119   -1.71263163583658
C         -10.30850890258548    3.75911738178652   -2.30085066023371
C          -9.25736900361223    4.59071232259727   -2.80246484468588
C          -7.96484683262650    4.22054463892059   -2.97067023529540
C          -6.99456326831869    5.07125366550741   -3.56068725426162
S          -5.70132066821746    4.36820352007612   -4.47776108687950
C          -5.25035319748762    5.89199938618166   -5.18031729051920
C          -5.97038747474665    6.94038319749000   -4.56774670982008
C          -6.96351188581446    6.47604188898649   -3.65496249154650
C          -7.72275173346395    7.40874361201510   -2.92357612880337
C          -7.50022569518329    8.74280477655123   -3.11887179496453
F          -8.20657260891156    9.64106410244089   -2.41834828406167
C          -6.49854868965934    9.19820670118394   -4.00123390964110
F          -6.27381195176759   10.51387927756911   -4.10765948885327
C          -5.72881851756253    8.31711807956356   -4.70766694845474
C          -4.42701116459961    5.97070832871772   -6.31781329001393
C          -4.67906887645909    6.92342697214685   -7.27431405735884
C          -3.97180958597406    7.19072304488284   -8.44603598695288
C          -4.50181180759113    8.04431015926592   -9.39786024463087
C          -3.89602580377051    8.63516084893411  -10.52513692651596
C          -4.69974303612208    9.51998729862406  -11.19418307349810
C          -5.99603615709116    9.62298584631643  -10.65516928176592
S          -6.16515890989179    8.58967269247708   -9.26588268156623
C          -7.07151205233091   10.42372002383715  -11.02394318197227
C          -7.12042323076362   11.59158982524369  -11.80111048326462
C          -8.32635872309145   12.23455867530391  -11.73311650605447
C          -9.29261232334642   11.59746019710306  -10.91915479588551
S          -8.63238102710802   10.11549301372705  -10.29580733725346
C         -10.58486495359553   12.06788070608285  -10.71862659814326
C         -11.66054923695497   11.53904155260881  -10.01940827919295
C         -11.81307653893062   10.47325322238679   -9.14118735502904
C         -13.16312093045144    9.88629554347336   -9.00086815139908
O         -14.21340356341479   10.37162196339813   -9.37073767847898
C         -12.97175995638681    8.60116703522960   -8.29414847851301
C         -13.87946778890306    7.62723920246687   -8.00468426392791
C         -13.44843393880864    6.47030237998876   -7.31202451354875
C         -12.07834953884148    6.35195584608265   -6.94183100785173
C         -11.65851573346439    5.20417197909238   -6.24348967712607
C         -12.57442003880877    4.24069758226173   -5.92441433532762
C         -13.92453839094718    4.33424603181674   -6.28022335259970
C         -14.34502867967399    5.43800873218732   -6.97213262233508
F         -12.17124644738785    3.16065892360483   -5.21783658371717
C         -11.16084120686122    7.38538354151182   -7.25049454373390
C         -11.60648274921950    8.49808543710153   -7.90510792505977
C         -10.93008606489104    9.73433022840856   -8.30098559581430
C          -9.75724109117418   10.20241060784433   -7.73704907178655
C          -9.37136152798931   11.55023802797673   -7.85530134636056
N          -9.08607263926004   12.66128461407298   -7.91549641776033
C          -8.93202461838865    9.42029104233091   -6.91598155428069
N          -8.22201866315720    8.79227078666519   -6.26496480080038
H         -11.36767845233472   10.17541017925587   -5.18187376094040
H         -16.29284479615162    9.48371530415886   -5.79690621283793
H         -11.77190893171259   12.51949810924109   -6.68561958409893
H         -14.14999037020515    4.93275099890643   -3.01830497253919
H         -11.40812300982946    6.00257858909456   -3.19186349323640
H          -9.23008866866300    1.99170612425657   -1.52794869435493
H          -9.54169824094934    5.57506143990403   -3.14270778385975
H          -7.65362635557370    3.20720423743556   -2.76009027276224
H          -8.44145847006277    7.10112280098003   -2.18324203147404
H          -4.93618655216882    8.68736800710719   -5.33604535671956
H          -3.68180600020903    5.20440765253980   -6.48038310596448
H          -5.57583092425959    7.51423286502840   -7.12983628061344
H          -2.99232257517556    6.76413933025422   -8.61070605555873
H          -2.87655998865638    8.42199877255597  -10.79509720114593
H          -4.39645829178726   10.08132864073531  -12.05977638436961
H          -6.26384603979217   11.95966592289270  -12.33672105017903
H          -8.54091054805933   13.16647550517525  -12.22500515539760
H         -10.80505934291106   12.96973847941443  -11.27755391551635
H         -12.61675009343448   11.98814687611536  -10.27735226443325
H         -14.91443993687163    7.73147645788546   -8.29504542657667
H         -10.62443366100930    5.09554993404648   -5.95433427482102
H         -14.60246221531176    3.54280334398221   -6.00319807299628
H         -15.37998093788296    5.53195253727282   -7.26657478999236
H         -10.13120427521560    7.26868865307839   -6.95311168265352
