113
 SCF done       -218.084998726910          0.000401536919
C          -8.79520127137670   -1.98138342477433    0.14371107173470
C          -9.08813728415660   -2.55573903306593   -1.06913280676448
C          -9.76794578547567   -3.78049134649217   -1.21871212883055
N         -10.32490241730924   -4.76870008436755   -1.39826298433611
C          -8.71792610534905   -2.01324227583120   -2.31631083495852
N          -8.42666553127518   -1.63851662905090   -3.36245668949328
C          -9.06176842499408   -2.56656500740102    1.45335663544141
C          -8.50224532984190   -1.72394198667534    2.44458026181579
C          -8.58303172882221   -2.00332329921814    3.78623783269910
C          -9.24663109164415   -3.17436649840525    4.16919541264542
C          -9.80570271140750   -4.00805754167348    3.17247795343614
C          -9.72465456579557   -3.72371172698748    1.81402503418836
S         -10.58770392619504   -5.39633834256676    3.86586817998588
C         -10.15543843229740   -4.84675141451610    5.46307422955753
C          -9.46244185682121   -3.68357796610807    5.47899799075537
Br        -10.66306823855818   -5.85830761601843    6.95878218250845
C          -7.87046297669430   -0.55498638997210    1.79906887475661
O          -7.36614194086382    0.39437096721116    2.36640740795174
C          -8.09054952526578   -0.73838740075150    0.34919101847233
C          -7.89600173958380    0.24241611478508   -0.59788905630923
C          -7.08962756886062    1.37751725126439   -0.45955001649143
S          -7.54092306079531    2.83680323879617   -1.29963702583288
C          -6.28483661950801    3.76886985678537   -0.56125687086824
C          -5.46663928963266    2.94111287433980    0.24336235036525
C          -5.90879774134975    1.58906550038922    0.28089344161988
C          -5.13272855112976    0.61644307204578    0.93228312588997
C          -4.00694145549719    1.01118649926807    1.60036332747618
F          -3.24643007430344    0.10076331485445    2.22447787295035
C          -3.61091053534149    2.36406125341191    1.62828019605352
F          -2.50308362833005    2.70946604412668    2.30384172624045
C          -4.31269843936232    3.32007684540740    0.94702598000108
C          -6.17214669821221    5.15713543537087   -0.72914499611426
C          -6.97766899398360    5.90641377552329   -1.54026743985309
C          -6.94516343616198    7.30818462384756   -1.64278292151563
S          -8.04883974933843    8.11306206038810   -2.74917373259479
C          -6.17242612709038    8.22444953283387   -0.92937099403203
C          -6.47543613460888    9.54263651064039   -1.22818329459142
C          -6.05486377930365   10.89635469929483   -0.85057289596231
C          -5.06950890424342   11.28186417674265   -0.01515662814684
C          -4.63569100431353   12.71850919862503    0.10033784794314
N          -5.59997303654179   13.50547072186452    0.86984578494652
C          -4.27873731163503   10.30477130911988    0.80993802851420
N          -3.07217298419181    9.93651939219726    0.07659437600246
C          -7.48084586652539    9.63879481841425   -2.22309227273731
C          -7.74881003238878   10.98864427323585   -2.47309449665903
S          -8.82472928151633   11.93544410362624   -3.41116458215444
C          -6.92278155003387   11.77431696861976   -1.63572305101660
C          -7.21657015713367   13.12135489829290   -1.71282841179904
C          -8.23041787583391   13.40104998061341   -2.63221675950516
C          -8.80677582375627   14.64360648855431   -2.93462370303140
C          -8.52703176597151   15.78843780411998   -2.22942264445785
C          -9.10088068617263   17.03758372868676   -2.45261124992220
C          -8.86264314761141   18.11791637016282   -1.62411848944884
C          -9.38724674621604   19.42319216137647   -1.71004511493213
C          -8.99922298671067   20.25187852646744   -0.69293694681689
C          -8.14983452335690   19.63611030772576    0.24628114922463
S          -7.83509050659189   17.98458277735795   -0.20711923341029
C          -7.61291188521425   20.16173374403553    1.41505348625269
C          -7.78495920282706   21.44239087055293    1.96911984452879
C          -7.14526597204135   21.61199091598039    3.16688410019718
C          -6.44088586417262   20.47417050943695    3.61006764589521
S          -6.59727635719053   19.18190940195464    2.44716900268919
C          -5.71487013341557   20.34367422596333    4.78297885564093
C          -5.07182118913647   19.16767998857102    5.14039421360819
C          -4.31739133011718   18.88759378170619    6.26260164763143
C          -3.75403735627525   19.71624887875698    7.29012163105275
C          -3.40332133849146   21.04480387398494    7.19818077316041
C          -2.83298299531825   21.78245524647932    8.25291821288765
N          -2.38802637701492   22.44283888664155    9.08123711294812
C          -3.45827236303075   21.80746316601417    6.01620877571551
N          -3.43095211075827   22.46931234895178    5.07727356125661
C          -3.40847437634625   18.84323134937990    8.41434254452455
C          -3.57013444524242   17.49575618722325    8.00702918882379
C          -4.09232961484055   17.47266073231323    6.62449341818793
O          -4.32275389705961   16.49719861884851    5.93863356351874
C          -3.28526872246108   16.43547742628288    8.83073656312076
C          -2.83016759290643   16.71690575792256   10.12415434172869
C          -2.68672564829922   18.06452110270152   10.52594509594045
C          -2.96660844775619   19.13892227303622    9.68819071694354
S          -2.12355830932922   18.18629284294018   12.16565663007902
C          -2.08481622933853   16.44716974685125   12.28488568432176
C          -2.47480188131100   15.80685260315095   11.15783079396967
Br         -1.53476012101312   15.64068506370097   13.88743457080645
H          -8.14605161824449   -1.34173552940721    4.51762223607344
H         -10.17152816895984   -4.38695865444495    1.09234063112458
H          -9.11748551907978   -3.20240976764275    6.37591496007467
H          -8.47917746393340    0.18976338320342   -1.50992620741421
H          -5.39548227967831   -0.42700793354462    0.89657573261934
H          -3.96052749567546    4.33833666667843    0.95162939610730
H          -5.40252246241587    5.64423033524522   -0.14916788459237
H          -7.71849048445864    5.39487398755324   -2.14124869338221
H          -5.44224432337873    7.89476615235272   -0.21486118693087
H          -4.57724254617518   13.16202595518759   -0.89906867122994
H          -3.62446157191513   12.72855542842325    0.53348715000888
H          -5.74261901102850   13.08776926052610    1.78393168630752
H          -5.23400030712756   14.44030080014968    1.02161117407930
H          -4.91229393042644    9.44953202332925    1.09072900414773
H          -3.95704423582906   10.79566208351718    1.73388468590345
H          -3.31507025723989    9.46038404848374   -0.78560658495024
H          -2.49250614371467    9.31660079738175    0.63104696197806
H          -6.75576685549329   13.87122165402354   -1.10035061100745
H          -9.53431463496992   14.67756068488453   -3.73445030563686
H          -7.83243428792083   15.72172359574983   -1.40287969158140
H          -9.77710753323184   17.17600077265404   -3.28536141893089
H         -10.03999860679588   19.71595012147857   -2.51349455764640
H          -9.30747765651010   21.27730771807105   -0.59707281103731
H          -8.37324028497283   22.20122072257188    1.48517748543114
H          -7.15726751290003   22.52146351787791    3.74034358080376
H          -5.69346666620289   21.20242703315884    5.43635113502304
H          -5.24356461534624   18.30422554029493    4.50247179195546
H          -3.40950314391574   15.41923748610274    8.49088727526893
H          -2.84447647253317   20.14884306062706   10.04260339865577
H          -2.51149319333132   14.73746002051547   11.05718734322863
