118
 SCF done       -215.450655716113          0.000786273728
C         -28.05774318381829   -2.89457122555223   -2.59503392856019
C         -28.19016426661188   -4.16377723599006   -2.09136652280686
C         -29.41336377797946   -4.73263356480512   -1.68444333341516
N         -30.38058220552058   -5.24406740436167   -1.33607560326994
C         -27.11601701395520   -5.06053532266441   -1.92386549864917
N         -26.26994276407029   -5.82281301901526   -1.77699063764774
C         -29.14318129532135   -1.93690453332131   -2.79659677801981
C         -28.60995721777897   -0.74787040417994   -3.35912937514699
C         -29.38831442719094    0.34329429256330   -3.65973858248877
C         -30.75877866992586    0.26095197852326   -3.39042241103574
C         -31.28143779114413   -0.92740895414784   -2.82826420686011
C         -30.49367442010285   -2.03304158710923   -2.52631410545421
S         -32.99490317473572   -0.81329530171638   -2.57162861126723
C         -32.98738399157856    0.80771243053362   -3.21381204132835
C         -31.76485670057160    1.24260355911429   -3.60190862811853
Br        -34.59226556604709    1.77301500200726   -3.31074632492064
C         -27.16117803065139   -0.91316073983798   -3.52486215572699
O         -26.36238307487496   -0.09680003370149   -3.97966961049370
C         -26.84112736240388   -2.25198581187745   -3.02828799414616
C         -25.54464384064917   -2.71302567195566   -2.99176688776985
N         -24.54878037856978   -1.93604048886097   -3.42952933646701
C         -23.22188267418882   -2.20433943875561   -3.40197794373582
S         -22.60609847229258   -3.70066248615321   -2.76966611906945
C         -20.99486797443124   -3.12792360998725   -3.06138798028610
N         -19.92773904831772   -3.97482745298396   -2.72816188745173
O         -18.79962448681004   -3.56501454548988   -2.92717180059775
O         -20.21420327774721   -5.06190776450997   -2.26019695425813
C         -20.94056485558569   -1.87526658742884   -3.60535753364279
C         -22.21854687586152   -1.31386170784418   -3.82202581863782
C         -22.47487497737607   -0.03096828240873   -4.39509018449342
C         -21.52228758543272    0.92202424982063   -4.58563870512846
C         -21.76415210261561    2.17610188512904   -5.17120767605348
C         -20.81496093134504    3.16386890990583   -5.25765633282070
C         -20.95338424239735    4.44809483863357   -5.84225928676637
C         -19.84641860741998    5.23382774976106   -5.74022372061735
C         -18.77020860910935    4.62194376924654   -5.05760863475768
S         -19.20349432187531    2.99323263431740   -4.58183153205762
C         -17.54642743078979    5.15981856507548   -4.72015260601518
C         -17.04695195323496    6.45745599100025   -4.98911783029490
C         -15.82221914193209    6.69553381496890   -4.45449074560451
C         -15.26957205525078    5.60615441407154   -3.71848765033073
S         -16.37973060852647    4.24172745988891   -3.79656684591311
C         -14.11902142665386    5.65872699486907   -2.98897909019890
C         -13.53940824623979    4.64807949795787   -2.15482006246190
C         -12.66546906020027    5.05534726651938   -1.12748137877833
C         -12.16420922646549    4.12788888348372   -0.25115356020197
C         -12.48249359333627    2.76471232133696   -0.39694773860702
C         -13.29878964910093    2.34133386493879   -1.43848350055600
C         -13.82375068961960    3.28004043531299   -2.29891415389829
C         -11.83089848561623    2.02581992760811    0.65575729367357
C         -11.11895964793549    2.92980849552362    1.46989082569965
C         -11.30811864906363    4.34718881438574    0.97875909201654
C          -9.97178392513734    5.02509040775970    0.64069507128981
C          -9.18519977645473    4.26221280940316   -0.41930684709401
C         -12.14600537353717    5.19590478287135    1.96545567358776
C         -11.56458370244783    5.37699033421363    3.36135924267948
C         -10.38226681098072    2.47293220623454    2.53242262681163
C         -10.37668897794420    1.09921224937631    2.83793005312006
C         -11.09184784571702    0.21473599386880    2.01171080248574
C         -11.80960921707040    0.66260015341462    0.92524771142058
C          -9.71313083322987    0.56734505780690    3.99223031374806
C          -9.11548187144479    1.27759804061108    4.98258233038376
C          -8.59403099120890    0.65524382884928    6.13711826891183
C          -8.16905600346306    1.24862423622099    7.29097808259330
C          -8.26422442189200    2.60610626721580    7.77779988643261
C          -9.22268174292044    3.53836625728777    7.46683679309479
C          -9.26591812240988    4.83515422465826    8.01930741669320
N          -9.34324639104182    5.91070819422055    8.41383799628408
C         -10.34685988553248    3.31173778875232    6.64721486885906
N         -11.31059529188026    3.20034302296418    6.03249264293131
C          -7.28265949257286    2.75073663949928    8.85119042318113
C          -6.75964443119808    1.47146797587637    9.16590150178436
C          -7.34079482317864    0.47130140030586    8.24691121667088
O          -7.15327972054759   -0.72465084652237    8.24017660449679
C          -5.84585136266701    1.27371971967202   10.17173798241516
C          -5.41849594942987    2.39247459388570   10.89501208649694
C          -5.93364586454251    3.66748910674644   10.56222828754192
C          -6.86433571276265    3.86701302092982    9.54979204430319
S          -5.26219624099221    4.91175083672158   11.57258092854249
C          -4.31597706440587    3.71749011607388   12.42049288837949
C          -4.49007970203066    2.45246712770595   11.97049822602377
Br         -3.18587224567947    4.25499000158212   13.81780293154336
H         -28.95542397104597    1.23433817350357   -4.08668725423885
H         -30.93896267742506   -2.91497280937149   -2.09727229901781
H         -31.57890059567217    2.21536633729530   -4.01914089957994
H         -25.28404128304766   -3.69009805209946   -2.60657030409390
H         -24.86675215501775   -1.01273848265725   -3.77879796162836
H         -20.00841890859636   -1.40016491333584   -3.84923403743815
H         -23.49242884901266    0.19654555915377   -4.68281824135072
H         -20.50889273331811    0.73595669107077   -4.25592881329864
H         -22.74842834199832    2.38448794314575   -5.56820238234507
H         -21.87072594101464    4.74762646012207   -6.31771411927615
H         -19.77679467889125    6.23574087646416   -6.12469272691823
H         -17.61126121506015    7.17541946508801   -5.55688516004506
H         -15.29098059191423    7.62679551142779   -4.54500574610933
H         -13.61836581043242    6.61995906867079   -2.97783929284947
H         -12.42804057858740    6.10441412683668   -1.02253677519701
H         -13.52603830722451    1.29451801844126   -1.57006341622744
H         -14.44235266812249    2.95055227352294   -3.11808334708365
H          -9.36899893503339    5.09941416973408    1.54653801139535
H         -10.17114045668938    6.03866926792685    0.28648130508865
H          -8.95971732073830    3.25402770625887   -0.07807676691460
H          -8.24761844477488    4.77163487485377   -0.63006397739274
H          -9.75356489843165    4.19065428088798   -1.34413498307375
H         -13.12982162394826    4.72869734226217    2.05689504575610
H         -12.28957879915170    6.17843522880517    1.50924562987837
H         -11.55169589784309    4.43885639345533    3.90937364784441
H         -12.18693009639506    6.07411572906613    3.91820115772195
H         -10.55783343629190    5.78600957406898    3.32568191708564
H          -9.80749375053670    3.15731025579140    3.13371496764877
H         -11.07793582233715   -0.84025099672366    2.24472091894054
H         -12.34921848946332   -0.03048459723390    0.29793098552693
H          -9.77095627269825   -0.50846261150502    4.11102430669480
H          -9.04147219916683    2.35147774118818    4.91209828437426
H          -8.46265636742534   -0.42180363983403    6.10437854000200
H          -5.47244233190650    0.28672041593072   10.39519654852751
H          -7.22362027727172    4.85875281121243    9.33075369037996
H          -3.98581342496575    1.59551938627666   12.37829813099596
