99
 SCF done       -228.982474918384          0.000699569373
C          -5.96776827154981   -2.25640539054894    0.51227512026360
C          -6.48218856647727   -2.90377685281856    1.60253079234745
C          -6.51333079145535   -4.30871075838813    1.74546202155331
N          -6.55997252183159   -5.44158305488386    1.92067678765425
C          -7.05027671697636   -2.27960129482843    2.73507928570988
N          -7.54003640159669   -1.85393674937136    3.68145096146872
C          -5.42459403321254   -2.89405720710615   -0.67961927593972
C          -4.96616844483680   -1.89257846015812   -1.57231386293664
C          -4.40981107620435   -2.18718755214492   -2.79407347904858
C          -4.31452233988421   -3.53275719013644   -3.16162425536272
C          -4.77645350749043   -4.52751854750846   -2.26431450429646
C          -5.32772015713592   -4.23053390452272   -1.02482381567683
S          -4.56664922525123   -6.12310717727771   -2.91625875353182
C          -3.87514581729611   -5.44473466976894   -4.36617651846597
C          -3.80161640587826   -4.09162240553070   -4.36307176271205
Br         -3.31669029970573   -6.58379258800755   -5.74555661163960
C          -5.17654131067317   -0.56465233193914   -0.97302994351623
O          -4.74492384762677    0.49084442868145   -1.37997699312238
C          -5.90724298896995   -0.81536617232705    0.30489644586944
C          -6.34772214394516    0.14826221177443    1.14972067251808
C          -6.48479542415160    1.53713647888075    0.82162722085761
C          -6.24883772486393    2.52781411022567    1.79820219087672
C          -6.38030398938734    3.93158807122940    1.50792493446334
N          -6.25701315174261    4.82304436397929    2.50323694238313
C          -5.88129841723423    4.41965869245207    3.68603908694558
C          -5.60965754465862    3.02909881037047    3.93699325319618
N          -5.83788822477557    2.13245578996382    3.01635925970968
C          -5.11913507610794    2.62561360420832    5.20541435558985
N          -4.70980306685732    2.34927936376829    6.23814682330168
C          -5.74946636310710    5.37879577665489    4.72207376970614
N          -5.60625886948953    6.14726543286028    5.55874902609552
C          -6.68967467599214    4.39330441034567    0.20920180259279
C          -6.96117375596211    3.40684387110832   -0.75231084361652
C          -6.90341692188148    1.99665685419326   -0.43813988292311
N          -7.28007978749845    1.24471523041073   -1.47647665497584
S          -7.58275419967372    2.19530826183458   -2.72252905302895
N          -7.29384727342678    3.60575247948336   -2.03482182947729
C          -6.75941256365245    5.80252598174117   -0.09769318482137
C          -7.77214301967624    6.31222620859581   -0.93494475488739
C          -7.83759459227422    7.70719927210583   -1.27756279459603
N          -8.70192307662823    8.09675965483355   -2.22982642111943
C          -9.56640376641913    7.25236901487339   -2.72574554738506
C          -9.65974501323702    5.92425905454467   -2.17895295519185
N          -8.75679827541468    5.49531556779128   -1.34511016805396
C         -10.69665217425753    5.04522266784625   -2.57973447444078
N         -11.50886530944005    4.32295241145487   -2.93942453786189
C         -10.40581329839164    7.67796973532165   -3.78296105326495
N         -11.08397599720668    8.02579390067217   -4.63796942207065
C          -6.99466552363406    8.67014849680255   -0.67973506714620
C          -6.02466410255466    8.16953955241773    0.20816511536127
C          -5.88431562093560    6.74989883314606    0.46124598198228
N          -4.86276559850992    6.50012209322176    1.28848014984624
S          -4.21613907305767    7.88626036128665    1.75281074325712
N          -5.14611525182192    8.88044040275117    0.91872192938432
C          -7.14381817208911   10.07288644443310   -0.97014714688326
C          -8.41717362042385   10.63356867481040   -1.21815557811649
C          -8.59520068848075   12.02472892961373   -1.53036302151653
N          -9.80912755407834   12.47654162972049   -1.89374571560492
C         -10.82480846736756   11.65837647683285   -1.90766372304887
C         -10.68067532554192   10.30695276692778   -1.44037511935728
N          -9.49937550876007    9.84431325577053   -1.12389953511232
C         -11.79403419201683    9.43990528769697   -1.31478142629975
N         -12.68075872467585    8.72078876659005   -1.22407988910571
C         -12.09116128611816   12.11795895105694   -2.35326413726834
N         -13.12822013922359   12.45461783984388   -2.70103019042400
C          -7.52534761384961   12.94357524341320   -1.46718500094166
C          -6.25241945330203   12.38621310650057   -1.23531962818266
C          -6.06040186624893   10.96711669869928   -1.02733195652962
N          -4.76455604010795   10.65818481311962   -0.93528955430453
S          -3.89440920524860   11.98855646764389   -1.05252748873013
N          -5.08757117965846   13.04108858335492   -1.25494528722336
C          -7.76523393843044   14.32743525496238   -1.72969569092541
C          -7.07644158344343   15.41304327304693   -1.30338347689514
C          -6.03479567783592   15.59232032216770   -0.31187323519273
C          -5.84471693636926   14.83189285502372    0.81081678235383
C          -4.83291044116711   15.07120255882667    1.76307768736442
N          -4.00645487186624   15.20108647927192    2.54859442667572
C          -6.66928345298389   13.74781291820081    1.17115767622636
N          -7.32406117579913   12.86980497781676    1.51543388045545
C          -5.37915451174785   16.86090965528003   -0.59965453994268
C          -6.13376556603366   17.55555718963923   -1.58050263833053
C          -7.27567261581412   16.72181827082495   -2.00042314275734
O          -8.15832134455963   16.99923886130249   -2.77431277514573
C          -5.78806409233286   18.80841298615952   -2.02665843994517
C          -4.64070416149958   19.39970152810154   -1.48773640985659
C          -3.88573204580188   18.69184010156506   -0.51986454894130
C          -4.23837330434531   17.42809191155904   -0.06327569438829
S          -2.50406960507431   19.60386983458181    0.00379494386618
C          -2.95374258535198   20.90808627173616   -1.06333777983013
C          -4.08007925606209   20.67286685661593   -1.77853695020763
Br         -1.89352836874098   22.45197212792549   -1.13395332806858
H          -4.06582292770503   -1.40241992567573   -3.44934740440239
H          -5.66184021867749   -5.02403176139477   -0.37773223624148
H          -3.40252316475960   -3.51145555783559   -5.17485716452861
H          -6.62058990284430   -0.10474588091949    2.16606436767060
H          -8.60608700689690   14.53286732138436   -2.38547996434070
H          -6.38519985236863   19.31794855960411   -2.76643994447783
H          -3.63166315153192   16.92450915217316    0.67101422518395
H          -4.49952761144855   21.36819077747070   -2.48240047785183
