119
 SCF done       -208.756845252858          0.001141721814
C          -3.47913710922512   -2.18120091630722    0.59139958921827
C          -2.65412539940450   -2.12230346508263    1.68571603173158
C          -1.64000897476496   -3.06390286160672    1.95958059554782
N          -0.79466332925141   -3.78984454820623    2.23673462780444
C          -2.69909219474742   -1.15721114490624    2.71441143832374
N          -2.66551690709124   -0.43405963021781    3.60690046161423
C          -3.46910537531390   -3.24741984887671   -0.40175818670037
C          -4.55748242598627   -3.04837441480435   -1.28209868502109
C          -4.82842417890749   -3.89045100455174   -2.33270413283427
C          -3.97850520542365   -4.98392552317307   -2.52680016326655
C          -2.88847946759548   -5.17342244658857   -1.64470887184879
C          -2.61743368178977   -4.32245001411408   -0.58072929829119
S          -1.96050475085176   -6.58063700471794   -2.06927711507164
C          -3.03637166423220   -6.89076392139589   -3.40594940487816
C          -4.03876744525488   -5.98938105437713   -3.53057231276717
Br         -2.73306307006747   -8.37491596252972   -4.51242876222329
C          -5.30095329602733   -1.83263002608974   -0.89040039025650
O          -6.29576731154727   -1.41968650783153   -1.44768847729007
C          -4.55364054765277   -1.25627048822511    0.25313793950004
C          -4.66715057982522   -0.02258443074655    0.83089386275980
C          -5.62200458208879    1.03396332229782    0.71616086023447
C          -5.23025190268415    2.28872679005712    1.23791528428464
C          -6.08072805491852    3.35875417116449    1.16735072851017
C          -7.34812566613383    3.21586412478862    0.56313670614668
C          -7.76474596146690    1.97743573948333    0.08836429129480
C          -6.91051986196712    0.89981874769722    0.17031767280304
C          -7.98484032042898    4.50748449839244    0.51580079790476
C          -7.11202317378106    5.45775592119893    1.07891627741570
C          -5.87395661925161    4.78255304700063    1.63060809701413
C          -5.95167011352678    4.89185776396089    3.17285350754910
C          -4.89767015307870    4.11018550656504    3.94593451506936
C          -4.57774552825208    5.39634656556271    1.08371506582437
C          -4.54306825779658    5.41541942400185   -0.44028503049117
C          -7.43997823706454    6.78897216029580    1.09499457352193
C          -8.66071205370964    7.21121066605736    0.53954865140529
C          -9.54012587735151    6.24225803570781    0.02473868572515
C          -9.21375947414638    4.90450157094384    0.00021481110878
C          -9.03837649846633    8.59613858703066    0.45141463369991
C          -8.20405572496456    9.64315767605139    0.64840249796976
C          -8.53854683713365   11.01962813029205    0.49902567421425
C          -7.52482402409272   11.99183636153494    0.64643262123011
C          -7.75958963847599   13.40774268408745    0.46367983167259
N          -6.75959170914142   14.26625859206544    0.59644850335612
C          -5.54391643976783   13.83385931574831    0.90042476041722
C          -5.31732061686980   12.44000568830639    1.09016606315560
N          -6.28597516565845   11.56672801894238    0.96190475706608
C          -4.01440020543568   11.98986160696490    1.42098989774472
N          -2.94492551909572   11.67266863071240    1.68460790661579
C          -4.47555124959077   14.73752596711421    1.03360506474338
N          -3.55207752591625   15.40980405297095    1.15687018834483
C          -9.05100566877389   13.91829893490132    0.13443975817648
C         -10.07457089214103   12.92747891696830    0.01411372433749
C          -9.82906199746544   11.51810604443549    0.18464280762364
N         -10.93925224091636   10.80465447749561    0.01182856878315
S         -12.16497379929980   11.79907557015267   -0.32839583912770
N         -11.34266270506576   13.18622646969793   -0.27458301180082
C          -9.39224513625686   15.24962353201913   -0.08250911566106
C          -8.65227806384650   16.42668251676937   -0.07477034602534
C          -9.23627500520321   17.68000469995504   -0.35064926311836
C          -8.36438025746985   18.73752785315867   -0.32187756118118
C          -7.05504931210838   18.34853591935506   -0.01984163036637
S          -6.94938301062959   16.61910495845720    0.23561808223542
C          -5.90905307783626   19.13933795159226    0.08442239621749
C          -5.77189104652967   20.52790990479265   -0.08176917787395
C          -4.48815513972618   20.97323666026757    0.08442903409289
C          -3.55592162429976   19.95816324458086    0.38760553401400
S          -4.37786507633130   18.41070939146455    0.46021860075379
C          -2.20055408347826   20.13983257947087    0.58146954274726
C          -1.22948312375442   19.17085453840741    0.86582582607543
C          -1.38707089903578   17.77910007780744    1.06163910589528
C          -0.12502839074901   17.21758563492824    1.29594981002879
C           0.24896331742381   15.90142524396120    1.53100602781249
C           1.60506940638915   15.64407261419729    1.71371545283979
C           2.29829967378335   14.45443104790053    1.95099274082888
C           3.68500450719140   14.74064308925051    2.05146702697674
C           3.85767338756688   16.11254211555064    1.87988100687017
C           2.58981135242486   16.71553292208705    1.66543842651159
C           2.22289635236721   18.02126871562364    1.43980844551236
C           0.85555716961919   18.29050819343931    1.24927379172590
C           0.16794647081196   19.46599031625381    0.99362029507644
C           4.75410177830681   13.79931082506258    2.28432023780572
C           4.60312638032365   12.48770732412301    2.45025120397855
H          -5.66897208402744   -3.70983726210031   -2.98430912439920
H          -1.77110313157431   -4.50870175679193    0.05859769389361
H          -4.78984445904904   -6.02894252814570   -4.29825749104954
H          -3.84999669683349    0.23619958534067    1.49599876737146
H          -4.24207356300223    2.39256618690642    1.66146969877413
H          -8.74373092781185    1.86082862888315   -0.35129725308497
H          -7.23114597801531   -0.05772726797705   -0.20069909881111
H          -6.94173472717118    4.54697109970098    3.48359085594683
H          -5.87553218455407    5.95003865332675    3.43283184253615
H          -5.00292874339724    3.04154993492992    3.78037179320397
H          -5.02140649348292    4.29831291987973    5.01019782986263
H          -3.89250050830437    4.41421838006281    3.66725292816210
H          -3.72654745242474    4.82252994848903    1.45205617786762
H          -4.48278202706665    6.41606309463332    1.46194340661763
H          -4.62883955073599    4.40679425351295   -0.83953570368017
H          -3.60641809552225    5.84494918174392   -0.78792962758211
H          -5.36240630987110    6.01083940869940   -0.83703273459913
H          -6.76620540433872    7.51147617155793    1.52839917268035
H         -10.48611338489568    6.57027081125543   -0.38154792230338
H          -9.89527755276212    4.17868947948600   -0.41789528112009
H         -10.05824385946859    8.79860699055324    0.15593563107057
H          -7.16769174246922    9.47628822289333    0.90494446766242
H         -10.44312852551509   15.38809361767595   -0.31323860310898
H         -10.28646560720840   17.77125812159796   -0.56714974033782
H          -8.64664494953377   19.75810415572923   -0.51214019090016
H          -6.60703500612925   21.16215295986751   -0.31898442774356
H          -4.19004146770924   22.00326155271643   -0.00629816028319
H          -1.84720083459093   21.16043036005482    0.48813752783151
H          -2.29947216613293   17.21663194627227    1.04475013596005
H          -0.48885708425498   15.11331672023799    1.56416920080360
H           1.84846915820468   13.48338815768357    2.04034013400764
H           4.79695041372648   16.63508221056415    1.90262746761517
H           2.95295495733159   18.81791958572567    1.40430691400783
H           0.59689272793887   20.44740149386044    0.89595651563880
H           5.74590285064069   14.23373318615550    2.31901757293522
H           3.63736915227563   12.01280662929190    2.42452874440154
H           5.44690193545071   11.84171474015599    2.61998275038820
