91
 SCF done       -174.283147514910          0.000782511586
C          -0.40856212114068    1.22480216270353    1.69661074468082
C          -0.41326972103544    0.52064596460090    2.87561761384305
C           0.74606658353011    0.16804500678075    3.59311307362405
N           1.65656818069682   -0.13981739155440    4.22177652326531
C          -1.58243579696546    0.06106486316007    3.51256292420373
N          -2.50969932874807   -0.32965480005326    4.06630996375202
C           0.77949246214049    1.71484660368395    0.99964975611575
C           0.37434871522372    2.38715554450007   -0.18228186003654
C           1.26685806525823    2.96105870277839   -1.05384435865174
C           2.62854405650198    2.87265366391807   -0.74382233786903
C           3.02420987575982    2.20337375493705    0.43758547439041
C           2.11962430452464    1.61886893094701    1.31808071840211
S           4.75038445220344    2.21562189402578    0.63068513233325
C           4.91505272029753    3.10765522459065   -0.85841185668331
C           3.73881637432984    3.38292408415291   -1.47039255184701
Br          6.62251373536559    3.59431312373204   -1.46376630653226
C          -1.09081009934799    2.35112670767555   -0.26652368026567
O          -1.79838073674949    2.84044475884322   -1.14307145378524
C          -1.55288113582826    1.62284096695611    0.91610003891106
C          -2.89509973047091    1.42695371173952    1.15696883627398
N          -3.79912435182480    1.90244009052838    0.29374028036641
C          -5.14644874791692    1.84808058010512    0.38772461122243
S          -5.94546690964872    1.08044138223347    1.72725456302406
C          -7.47435510244860    1.53627992682397    1.04142777383358
N          -8.64060696531378    1.18623989105273    1.72495965246507
O          -9.70711633363927    1.54121321511451    1.24587914782506
O          -8.51799204585587    0.55099051385219    2.75706220556603
C          -7.36687034094979    2.22352400231680   -0.13793792553258
C          -6.03158759134037    2.41925980318215   -0.54520925473941
C          -5.60664601713637    3.11156783697127   -1.72255428537693
C          -6.45805491747841    3.77759638836215   -2.54181836322348
C          -6.11874370472879    4.49669934264105   -3.70702888405601
S          -7.37379291377076    5.41112642421639   -4.49358222643036
C          -6.28780082503012    6.01237008190389   -5.71438454305573
C          -4.99837562159957    5.50175344189525   -5.49535960276137
C          -4.90544723937327    4.65891343264200   -4.38137470144499
O          -3.78096123215083    4.07110487793860   -3.89665061858947
S          -2.56365660147955    3.67026359144467   -4.95891409820478
C          -2.26958733783362    5.34028671358894   -5.59152171538053
S          -3.68181731391062    5.91806268522336   -6.58740982381689
C          -6.68478497691585    6.89115895829332   -6.72347038282919
C          -7.95390233540749    7.41265091167044   -6.87726354533300
C          -8.40848079074018    8.32588852145385   -7.85560784949026
C          -9.72620408690083    8.67842344904144   -7.73417528227040
C         -10.37868776264263    8.05837612483331   -6.65582538530347
S          -9.26608211892603    7.00751721324990   -5.80211739082575
C         -11.67797224273413    8.13616142762412   -6.17541351728982
C         -12.79898529242976    8.87063592288021   -6.60691386303794
C         -13.91498299879075    8.66458373257076   -5.84454674883407
C         -13.74211848345658    7.75646100010191   -4.77151919308312
S         -12.08468369657011    7.18218720610761   -4.77399953075564
C         -14.69190851257589    7.34687868152972   -3.86563239904420
C         -14.52525804895392    6.42781210772371   -2.80927235237106
C         -13.36403035123820    5.75776517401193   -2.39026622556253
C         -13.69023715234580    4.91287696741630   -1.31179263591544
C         -12.90952623802839    4.04353777998793   -0.57201635881315
C         -13.53628146570971    3.31295854574520    0.43849131813195
C         -13.04308717576385    2.36414601259661    1.33185139924018
C         -14.11073974759895    1.91194134536770    2.16110686467100
C         -15.26646210668163    2.58173652240622    1.78314078962615
C         -14.95577519833394    3.46751354328284    0.70711033754606
C         -15.73334856579553    4.33247635585579   -0.01999045149323
C         -15.10863090324651    5.06981718454673   -1.04820003742407
C         -15.59641400004437    5.99306026216371   -1.95709313468841
C         -13.94216034456985    0.91890570793329    3.19604801068954
C         -14.90402377521426    0.46515107087949    3.99508168845191
H           0.92681063228574    3.46253198572786   -1.94633594063848
H           2.47211208732696    1.11977230529389    2.20509741783143
H           3.65587252244533    3.92360360574970   -2.39547770762664
H          -3.26215224141048    0.90384929047654    2.03022378474213
H          -3.37745164521653    2.39275127119233   -0.51883941287808
H          -8.23316497093660    2.55877899434971   -0.67714936775117
H          -4.55362248407587    3.11559187690501   -1.95852573475854
H          -7.51265826965000    3.80890898134958   -2.30567631872851
H          -2.10607622453588    6.01659660308001   -4.75480027698168
H          -1.40793545065086    5.30805010240419   -6.25096534017449
H          -5.92333700035085    7.19321420828445   -7.43036861962165
H          -7.74971906662297    8.70027089673766   -8.61934206402418
H         -10.23148150788280    9.36455857126368   -8.39079493169722
H         -12.75793669423999    9.52496474056594   -7.45955063163504
H         -14.86362697868800    9.13999988745460   -6.02497700501202
H         -15.68326825170850    7.76607228766691   -3.98885353980118
H         -12.37681693429633    5.85482951689323   -2.79594584566549
H         -11.85388614232035    3.92399982953943   -0.76702461482243
H         -12.02437241342588    2.02246729840171    1.38742509138612
H         -16.24336002396397    2.46513986229728    2.21431348339571
H         -16.79026728850172    4.45012040830985    0.17556159447144
H         -16.61328636106230    6.33526418933713   -2.03424004224985
H         -12.93479828237182    0.53644233616730    3.29764592830414
H         -15.91936550974251    0.81777322223891    3.92876467707074
H         -14.70647187096025   -0.27917170106056    4.74665270705773
