116
 SCF done       -212.385082748988          0.000351150855
C          -0.50131615705048   -5.66688239978027   -3.87113352390580
C          -1.13838868631323   -6.75738639124892   -3.31793141366853
C          -0.55810266885649   -8.03389828803165   -3.19788398294147
N          -0.14508584868261   -9.09887325066028   -3.06884829857853
C          -2.44498316348007   -6.77048716000664   -2.79427917316733
N          -3.49861252188987   -6.87945556817062   -2.34662569989480
C           0.86035880635352   -5.67907842141928   -4.40768148315180
C           1.16849606956756   -4.38227484054790   -4.88341525849553
C           2.37660443719755   -4.06762449644511   -5.45266004735300
C           3.33199051368418   -5.08508842741702   -5.56014281098831
C           3.01630604537045   -6.37663373188091   -5.08221576309269
C           1.79170542486956   -6.69410334739395   -4.50430846258408
S           4.33662007213504   -7.48411877551999   -5.31419840129455
C           5.28030743413715   -6.21090451433826   -6.04119911875680
C           4.64321849240346   -5.01872680768603   -6.10753345513094
Br          7.01900538173969   -6.57676950882108   -6.64577134472974
C           0.00397027925544   -3.49618012679346   -4.66422630734072
O          -0.05975446742020   -2.31671326926408   -4.95896755233654
C          -1.02444198201663   -4.33940325909771   -4.03222062441589
C          -2.29077976101152   -3.89812639439948   -3.67742652874702
C          -2.75884356577768   -2.60936941377644   -3.87015125599440
C          -4.04358241953759   -2.20175634177967   -3.53743435973508
C          -4.59187466263200   -0.92281337103029   -3.73964513585822
C          -5.90017275238201   -0.80804971711490   -3.34704110134761
C          -6.43155844318655   -1.99167253390140   -2.81320065631490
S          -5.23231327965437   -3.25988411478495   -2.81310967190664
C          -7.73120836650051   -2.20677527304161   -2.35089429644662
C          -8.80478344188711   -1.30501105006682   -2.36731303085293
C          -9.97353006385721   -1.83356085154388   -1.87820844569167
C          -9.86283982403785   -3.16294162395988   -1.44875078796281
S          -8.22671442508182   -3.73675781454684   -1.68029383204378
C         -10.88515827227251   -3.95506827208765   -0.93164050985344
C         -10.73693700027155   -5.24532204210442   -0.47867265541003
C         -11.78593372443266   -6.03878931495110   -0.02076774914974
C         -11.70221674365523   -7.34448129349036    0.48742016842644
C         -12.91099102902582   -7.89295366179614    0.83045496674729
C         -14.00334803999174   -7.04138762043097    0.59502775764357
S         -13.45169948963040   -5.51088971607993   -0.04865672191264
C         -15.35478648596908   -7.29985793540753    0.77240436345091
C         -15.96144122914439   -8.48397928673917    1.24576904452915
C         -17.32146598055904   -8.44424595131830    1.25456297624060
C         -17.87566538677202   -7.22351825012621    0.77826688530642
S         -16.56773517637087   -6.11267624630826    0.36269886949689
C         -19.19271128960754   -6.96574849915962    0.54976155608008
C         -19.70691683588638   -5.71046383712714    0.06358517859873
C         -19.18665081361376   -4.53959986332939    0.54588870521096
S         -19.89439498638699   -3.11788046844874   -0.08897604459002
C         -20.92734472595745   -4.08864744174834   -1.09076957874588
C         -20.74941108326176   -5.46939248658406   -0.91590526919171
C         -21.52417054913958   -6.35585496023578   -1.70777721652861
C         -21.23902985163147   -7.83328179708460   -1.62392459959028
C         -19.90696309014749   -8.16198816567097   -2.30333733994637
C         -22.47218067243695   -5.85862381500556   -2.59667358509763
C         -23.40916187484804   -6.77669376347487   -3.33993296589183
C         -22.88986230916606   -7.13348301810308   -4.73307949337642
C         -22.59096696671239   -4.46241111965091   -2.81567005586834
C         -23.32945167730507   -3.70139881993589   -3.80525115794555
C         -23.09948146910146   -2.35370490051458   -3.68298568537870
S         -22.03906278955820   -1.91695053010567   -2.42033692188417
C         -21.80999758412553   -3.59654127595767   -2.03656700306328
C         -24.17172980636225   -4.15682344446831   -4.88107644374517
C         -24.19631004005751   -3.54559843789108   -6.09033297981597
C         -25.05650258690761   -3.96499029230771   -7.13098158262047
C         -25.21763776483336   -3.40922114804712   -8.36510830782351
C         -24.73924254108604   -2.17639307246948   -8.95245673947226
C         -24.46382633224225   -0.99723396673555   -8.30821968574257
C         -24.05521374227731    0.18138738948107   -8.96788304242121
N         -23.70292854436393    1.16377838005450   -9.44571188886731
C         -24.64037178565562   -0.76554116640998   -6.93025913523604
N         -24.79390255647925   -0.48841090193281   -5.82599272009765
C         -24.80763271190087   -2.33561547963162  -10.40299767247343
C         -25.51954975804923   -3.52536931035004  -10.69935070961328
C         -25.86823569763661   -4.20783927405138   -9.43750991027618
O         -26.50334545158193   -5.22815820480952   -9.29575597652426
C         -25.78066747342922   -3.92831153896412  -11.98626678804655
C         -25.30633478231607   -3.12717737599969  -13.03049372771590
C         -24.58129914559739   -1.95069562736059  -12.72435165843682
C         -24.32486247514802   -1.53771463704348  -11.42268936232824
S         -24.07335670495467   -1.11995100605115  -14.16300356198580
C         -24.83598148074436   -2.34378372095771  -15.14344852505850
C         -25.43853053838526   -3.32608889745734  -14.43205949338679
Br        -24.76050151033684   -2.21090729853339  -17.01254647187835
H           2.57994087366476   -3.06884803764766   -5.80608612371472
H           1.60190179269995   -7.69552916427810   -4.15642593587758
H           5.07678201629912   -4.12819221667977   -6.52484675663062
H          -2.97340628527436   -4.60795191738539   -3.22650944748759
H          -2.10359799549350   -1.87481535896515   -4.31582612131391
H          -4.01403573651439   -0.12586126074287   -4.17242697994100
H          -6.47740982863103    0.09498903894481   -3.43139451089930
H          -8.70766484853904   -0.30223154382925   -2.74153024518237
H         -10.90308447911278   -1.29527278883956   -1.81976594112874
H         -11.87021434629929   -3.50549856295526   -0.89304117905651
H          -9.74961846518702   -5.68904914323052   -0.47693717633231
H         -10.75809534893465   -7.84993266093247    0.58763234215287
H         -13.03196950009782   -8.88242936078629    1.23284944311154
H         -15.37949185172896   -9.33385783868875    1.55405982535866
H         -17.95268257371474   -9.25536864048778    1.57165473146342
H         -19.88526964476568   -7.76612533834916    0.76015955883475
H         -18.44275148360511   -4.44251687717896    1.31208074749220
H         -22.01389644795939   -8.41484984255018   -2.11572348870171
H         -21.22051804037194   -8.15320970133811   -0.58366248773008
H         -19.94394266832672   -7.88278368501565   -3.35378141293622
H         -19.70516137585395   -9.22860209789006   -2.23572178573338
H         -19.08354780965131   -7.62543580676101   -1.84061613213626
H         -24.38085493268700   -6.29154974801500   -3.41159815066144
H         -23.57904542522872   -7.69192483930469   -2.77384166917723
H         -22.68835357723980   -6.23435418644909   -5.31117325107883
H         -23.62255403601740   -7.73274662698142   -5.26872797044454
H         -21.96794460026020   -7.70423981031978   -4.65862797202966
H         -23.56795566178199   -1.57794615019815   -4.26071856845297
H         -24.83884657430422   -4.98982355274328   -4.72233764156978
H         -23.50146826195397   -2.74350162628159   -6.28837709829910
H         -25.60640819863556   -4.88774086052737   -6.97343340746732
H         -26.33245158017945   -4.83416053319682  -12.18249220634881
H         -23.76176731367877   -0.63764207146255  -11.23981693923250
H         -25.95459168901771   -4.15784271847882  -14.87565375904192
