85
 SCF done       -172.496777616593          0.000296732824
C          -4.79846349915801   -1.62369026111042   -0.43610403477638
C          -4.26327749327011   -2.14070010466212   -1.58236659460718
C          -4.13488684696852   -3.52272815436931   -1.84547990264797
N          -3.99857569009344   -4.62996205971716   -2.11272712021456
C          -3.74618979308526   -1.37255492404612   -2.64880521235903
N          -3.31008662494071   -0.81090713080247   -3.54915510680596
C          -5.32929265120401   -2.38333663821581    0.68551446426568
C          -5.69860826147896   -1.49231778527662    1.72564499637098
C          -6.22810459735111   -1.92537734970170    2.91735619906159
C          -6.41505470047511   -3.30025295246913    3.08896904982917
C          -6.04944062297013   -4.18334697513767    2.04220687828347
C          -5.50683536453046   -3.74777889682920    0.84145484306817
S          -6.36268423331040   -5.83879708995385    2.46437034927293
C          -6.97050497655718   -5.33214097816022    4.01816424888128
C          -6.94220456210967   -3.99143692360004    4.21297188309247
Br         -7.58380903368408   -6.61790357990267    5.23538930076347
C          -5.39694918567319   -0.11076888276681    1.31995085922999
O          -5.36913075351183    0.87325084732035    2.01836785512336
C          -4.96137749459590   -0.20955868087045   -0.11527336241215
C          -4.79506702654616    0.85663903583494   -0.91846289364683
C          -5.23048674572003    2.17908027329529   -0.54199213167239
C          -6.43303319457636    2.61824155493490   -0.00413084083555
C          -7.61650065034362    1.79353121972492    0.24552024338766
O          -7.61715328290312    0.58512142755172    0.31425202429093
O          -8.74022765283923    2.50796582852457    0.33269229310095
C          -6.26815970391585    4.03855853351660    0.03797950390037
N          -5.09759271360287    4.36556166017472   -0.44483671639404
O          -4.46577259956284    3.23594705945504   -0.81879323151592
C          -7.16842050919854    5.06129561819174    0.57838156061032
C          -7.80958298569778    4.89925915057811    1.73764538964867
C          -7.24895953323344    6.24983294983462   -0.18194973169618
C          -7.30902075223900    7.25668853808371   -0.85352388017516
C          -7.35000098089325    8.43063157984171   -1.60132538640995
C          -8.28203529578537    8.68518739390028   -2.55489934953608
C          -8.30104316900789    9.87626690657911   -3.30871140951196
C          -9.21208211579887   10.16288970405904   -4.28946793742429
C          -9.26823526325276   11.33943423707617   -5.08057304328367
C         -10.27809313472222   11.35253787762433   -5.99099630153386
C         -11.08110017508352   10.18674348152003   -5.97249140425847
S         -10.51271540017102    9.07293299088940   -4.75696273974086
C         -12.17071049472299    9.90424943471641   -6.77688141665392
C         -12.72762514073917   10.71165340719031   -7.79162537473581
C         -13.80240724560595   10.14773899024492   -8.41302954704324
C         -14.15060040828323    8.87013771389540   -7.91898569004425
S         -13.05804873508540    8.40081245392621   -6.64093324883822
C         -15.18262995042807    8.07135255274018   -8.37296101028363
C         -15.49585623820694    6.83232734405630   -7.82713280484397
C         -16.46385052567057    5.94128944460189   -8.24027840679934
C         -17.24007976926167    5.85586278346891   -9.44576658417415
C         -16.89931723208249    6.33112838301029  -10.69215584414498
C         -17.70446152407368    6.18137793707530  -11.83730918364002
N         -18.32863469448696    6.11011459505238  -12.79933613894083
C         -15.66169269310001    6.92327487590078  -11.00972420587376
N         -14.65702009190836    7.36845685224824  -11.34507556918268
C         -18.37289641508699    4.96949547916327   -9.17407378870469
C         -18.18386285007223    4.37154990676678   -7.90344350593594
C         -16.94895114123174    4.91305020339827   -7.29528310332974
O         -16.45831824700429    4.60985385437701   -6.22813337413416
C         -19.06321774939365    3.45723945507685   -7.37946697486907
C         -20.19001868172314    3.12450004395992   -8.14034117005115
C         -20.37636539882199    3.73701926268240   -9.40071178593814
C         -19.48106822239516    4.65685107187359   -9.93566910839092
S         -21.83817460755876    3.19180577065321  -10.16677095272817
C         -22.17151860939476    2.15875041191771   -8.80223242129212
C         -21.23953951386200    2.21864037194577   -7.82244781843425
Br        -23.72054436019076    1.09996378016111   -8.79943696623560
H          -6.49395682611676   -1.22349701026031    3.69186811253816
H          -5.24447289992997   -4.45856431162768    0.07564351613324
H          -7.27808274833379   -3.50949159371535    5.11287628951652
H          -4.35678034055365    0.77341789468105   -1.90375858010174
H          -9.50106248123190    1.92016115178982    0.46509685209143
H          -7.70138868459504    3.99914565057891    2.31612340932941
H          -8.44150681484473    5.67368903575847    2.13538006361170
H          -6.57474421296329    9.15709664952546   -1.38824060526338
H          -9.04834691476701    7.94873426324453   -2.76022066647091
H          -7.54015050179754   10.61932751485223   -3.10550189325346
H          -8.55629925523220   12.13504764541176   -4.94882995203694
H         -10.46789661050147   12.16115126175118   -6.67325050988581
H         -12.32702181074485   11.67849520694789   -8.03741881302680
H         -14.35233948521650   10.60452971104938   -9.21618074357098
H         -15.77870324961771    8.47079480767631   -9.18033855244474
H         -14.98529822939014    6.55042457034649   -6.91045166155414
H         -18.88971281421786    3.01131748182391   -6.41267779482621
H         -19.66880587872320    5.09966459747855  -10.89967170594389
H         -21.28771043086245    1.64926059169102   -6.91220438000260
