95
 SCF done       -172.307125628267          0.000494340419
C          -5.54039742285301    3.54863300058933    7.27520511787522
C          -4.62334178113122    2.52360949249313    7.27915594816425
C          -4.06343266259149    1.97049909715148    8.44639049084219
N          -3.57082037650589    1.48763603405754    9.36496355851891
C          -4.14621076153363    1.87477055514316    6.12345985134637
N          -3.73353837080397    1.28494817916527    5.22768824157432
C          -6.13487870669329    4.16360790545311    8.45828580624994
C          -7.10015982088705    5.10925311322836    8.03572060177631
C          -7.84389198143221    5.85407899156179    8.91630196069676
C          -7.62845462282198    5.65204253133040   10.28445957146721
C          -6.66130361932686    4.70710836232028   10.69753431441195
C          -5.90575626171905    3.95534562275598    9.80450236477090
S          -6.55354998679668    4.61944263942689   12.43023788545888
C          -7.79524466991281    5.83526955858262   12.57227107471049
C          -8.26663734711875    6.28574521293479   11.38594861772732
Br         -8.35086043094323    6.39683390753498   14.27399798110551
C          -7.14544695206736    5.13872980643729    6.55857264095010
O          -7.80664506075166    5.89756040331227    5.87587501415462
C          -6.14989694475903    4.14440470666628    6.11324795076140
C          -5.71793851544517    4.00525489031869    4.81032147080103
C          -6.40781319818689    4.41545083134164    3.66607923068447
S          -5.50527836221841    4.87461106135043    2.24810765305792
C          -6.91545591533817    5.39358237999604    1.39273196732122
C          -8.07843444626960    5.08855897553880    2.13102170217088
C          -7.79016108680891    4.52708858421932    3.41014285662842
C          -8.83211800564180    4.04808476681734    4.21945425912403
C         -10.12260351885010    4.19038125683570    3.79065903795899
F         -11.13333381547573    3.73198439391346    4.54503029686198
C         -10.41198044470791    4.76748252144149    2.53867718359286
F         -11.69208651192426    4.85518680217166    2.13576882194886
C          -9.41461501383626    5.19077542143569    1.70489308341803
C          -6.75957707296376    6.04140812608132    0.14327407025723
C          -7.63941873906114    6.91149169797180   -0.41421127261963
C          -7.43005557688073    7.50966702194691   -1.68999733728439
C          -8.18866833179331    8.46366940692124   -2.26832173283777
C          -9.40086695988864    9.09220639275074   -1.66708583254631
C          -7.88082059667245    8.90748188336475   -3.67724928193421
N          -8.76157153398730    8.22109869677357   -4.60484324719570
C          -9.99636547183708    8.64922309531241   -4.96095058289884
C         -10.51065074440060    9.89845885811770   -4.79397625440988
C         -11.79845995111569   10.25902571437198   -5.22703421351786
C         -12.35261637634724   11.49947645105849   -5.04275536474123
C         -13.64390202204716   11.93166696991552   -5.42515694849351
C         -13.92200707765739   13.22666246943334   -5.10598118406713
C         -12.86427412213363   13.89974729904657   -4.45645058949661
S         -11.49978214353790   12.82500740925647   -4.25249490489214
C         -12.83266507620425   15.21384633838714   -4.02938062378492
C         -13.85455551165649   16.18106794812620   -4.12248391280356
C         -13.50798627916643   17.40131696304954   -3.62532389092901
C         -12.19003705457037   17.47773721080387   -3.11239669276101
S         -11.41218832885877   15.91275445754451   -3.27610421924078
C         -11.61545260958573   18.61109919026583   -2.58955482018014
C         -10.31929781317607   18.78310813703877   -2.08459791759930
C          -9.26957765410440   17.87905094640885   -1.92911409267525
C          -8.13603360085386   18.47018482265842   -1.39925683232461
C          -8.29293152341789   19.83709529255918   -1.13923176093977
S          -9.85941889591834   20.40044232623041   -1.54555782599468
C          -7.08628055165796   20.34727122133585   -0.61638043848104
C          -6.15129294165873   19.31513597578959   -0.53513722572931
C          -6.75063668913972   18.02984312531274   -1.02527339938570
C          -4.92506926519388   19.74114272135197   -0.03278780686301
C          -4.91394206319645   21.08901567701559    0.26905009239177
S          -6.45564472010440   21.84913270114886   -0.07307175607997
C          -3.81138309128874   21.83716430125650    0.79633674269856
C          -3.83007025496287   23.14011287483403    1.07248051770346
H          -8.57269417911538    6.56629475137132    8.56247157853214
H          -5.17734109271039    3.25020339887289   10.16854632462589
H          -9.03226643230853    7.03367099430004   11.28851044855583
H          -4.72359935437072    3.60825220152383    4.64397264950251
H          -8.63195372482604    3.54605152484878    5.15057937358838
H          -9.66831505028129    5.55005854754295    0.72214166860312
H          -5.81836867314363    5.86031228831243   -0.36160054614638
H          -8.51869406181756    7.19462878006390    0.14110446571019
H          -6.56214149470845    7.15207319883514   -2.23240161302565
H          -9.61534639330892    8.71615127515028   -0.67303828955898
H         -10.27054347202641    8.91796037139949   -2.30278239957756
H          -9.26255029469357   10.17159882757325   -1.60276031021455
H          -6.85154917106199    8.65632237046521   -3.94706201311287
H          -8.01966333054997    9.98238794763903   -3.79319829663578
H          -8.59906707984825    7.22711314235895   -4.66606872601881
H         -10.59617735128257    7.90380003889598   -5.46776107906298
H          -9.93908817259861   10.67035644687805   -4.30032006019426
H         -12.40289393473211    9.51314770353688   -5.72648859438764
H         -14.32851822792067   11.26877360604487   -5.92479329088948
H         -14.85455393924750   13.71562491183817   -5.32345904836579
H         -14.81404662685182   15.95472199811415   -4.55163233202303
H         -14.15806613602527   18.25844925972634   -3.61393680843241
H         -12.24473386808289   19.49230163824230   -2.57947855832564
H          -9.34900836458806   16.84139335392869   -2.19404026916288
H          -6.76515532066914   17.26355614630407   -0.24724113046957
H          -6.20720972553678   17.62493820699540   -1.88151576270084
H          -4.06702892916223   19.10870399183953    0.11160817932842
H          -2.91330345667507   21.25643597107094    0.96637866196987
H          -4.71293119699684   23.73608763031800    0.90994413796876
H          -2.96757368422640   23.64670474701009    1.46675562323116
