81
 SCF done       -163.800313608790          0.000716807822
C          -1.69815109544980    0.25143840172171    0.21556618528512
C          -1.81966239613034   -0.93461001561256   -0.47652583587821
C          -0.74488519551003   -1.75961776119392   -0.84929210704323
N           0.05673726094852   -2.49922521003981   -1.21544528247224
C          -3.01650156414706   -1.49906510380210   -0.95347864038163
N          -3.91577714683285   -2.06908831670698   -1.38957851634942
C          -0.43451667736619    0.80571638877827    0.69584843814762
C          -0.68925277616324    2.07247190726674    1.27311116137111
C           0.29803494969763    2.83914236290700    1.83834194212489
C           1.60163600222500    2.32737626514597    1.83938241793162
C           1.84575003902695    1.06093058665259    1.26101043416619
C           0.84489617465599    0.28685289297525    0.68401587732336
S           3.52158393525211    0.61513760734432    1.38090657770538
C           3.86547205149305    2.11634762516500    2.19769399605907
C           2.78386843729144    2.91210102757595    2.37076765632447
Br          5.61958295116375    2.48969596267822    2.74936440221645
C          -2.13782795894679    2.36435437084382    1.17788076328063
O          -2.68803631210665    3.38107913630187    1.55482556062633
C          -2.74353764229802    1.17198806041827    0.55608512045325
C          -4.10609490335418    0.97487870746983    0.39927660993684
C          -5.07702788100646    1.92001438793897    0.69659926711693
C          -6.43826811925791    1.66997680705346    0.64512834208504
C          -7.46588775247509    2.59976260421989    0.91719016452280
C          -8.72540260065060    2.07712136259791    0.84710939306596
C          -8.75002340456414    0.70509170782779    0.52540693062544
S          -7.12303689558138    0.10600689856736    0.27631357142126
C          -9.84624314044606   -0.13714328679594    0.44591454279912
C         -11.21014376708631    0.17992292671991    0.68401157118758
C         -12.04318263688597   -0.88625016547031    0.60182054663483
C         -11.38505524569755   -2.11810767268395    0.30738653335434
S          -9.65834814201821   -1.82930698402970    0.10389936282400
C         -11.99982639751071   -3.31907204410250    0.14997064705005
N         -11.37872502433373   -4.51492597774491   -0.09407613830477
C         -10.12834359224069   -4.93999707534287    0.37298659190562
S          -9.30226022501400   -4.23275600952861    1.62421622351562
C          -9.83001530947612   -6.15539426455179   -0.25793896656391
C         -10.91425902549022   -6.54576898745711   -1.03410925627386
C         -11.92346538919792   -5.50691927068311   -0.88555793504828
S         -13.40839491837127   -5.43599697500521   -1.57401549447078
C         -11.08693769559894   -7.66705894341729   -1.85643910116467
C         -10.06503317959841   -8.44242342352960   -2.36002736821747
C         -10.18619201488415   -9.56757586823576   -3.20932398296043
C          -8.99723482270660  -10.04292810500855   -3.68614042647651
C          -7.87938039949753   -9.30572997027436   -3.24889680355907
S          -8.37559205479930   -8.04138992221560   -2.15029388276646
C          -6.54698600814897   -9.40507463681524   -3.62022621843059
C          -5.91201183407134  -10.34497908807686   -4.46030440470476
C          -4.59046811801975  -10.08387341626611   -4.66995727884126
C          -4.11637636218489   -8.91635450813572   -4.01904560374855
S          -5.41008744578953   -8.19269509979389   -3.08464601393385
C          -2.86055788222344   -8.37324421835334   -4.11897917595026
C          -2.41398482643401   -7.17546862126321   -3.53925266328426
S          -3.38480156722339   -6.11606258307127   -2.51861745976759
C          -2.14256831103738   -4.96347022773541   -2.31726482781590
C          -1.00369357079761   -5.34145230942438   -2.99303124226661
C          -1.16494506610936   -6.58331219006707   -3.67505286035524
O          -0.04226628007766   -6.91804209607069   -4.33345960627028
C           0.83850435200482   -5.90404756243465   -4.07924461871429
N           2.12170388472312   -6.00102091528741   -4.67420335231903
O           2.89361405429253   -5.08966263716403   -4.45350828806470
O           2.35415718540047   -6.97480603770689   -5.35729547180528
C           0.32588249522978   -4.92246257533447   -3.27685586241292
H           0.07446824100083    3.80049124862542    2.27361820704707
H           1.08031553152007   -0.67561924409937    0.26085071324018
H           2.81570012295988    3.87091573386026    2.85521930158015
H          -4.44774789940498    0.01154161630733    0.03766187487911
H          -4.76401979225312    2.90761160439217    1.00370482203571
H          -7.24277681335454    3.62272485580098    1.16261082114379
H          -9.62428140831353    2.63868213374745    1.02767823011027
H         -11.52768954510280    1.18153349620913    0.91101424288536
H         -13.10724809828590   -0.84791706587173    0.75136038088909
H         -13.08232801730232   -3.36698347942214    0.14948526237901
H          -8.93504768294605   -6.70769454771353   -0.05342862879956
H         -12.09610933401322   -7.88915144333121   -2.17738453479684
H         -11.14812796511051   -9.98203991890313   -3.45361042350846
H          -8.90430538889876  -10.87590007757131   -4.35969266107817
H          -6.44132701641392  -11.17887615267348   -4.88482677515138
H          -3.94199784648050  -10.68226960414962   -5.28494240735598
H          -2.13202306929746   -8.89548398202593   -4.72582483197486
H          -2.32373671870611   -4.08204017016774   -1.73767134215746
H           0.82178950172543   -4.03875292480210   -2.92976839581668
