107
 SCF done       -180.141201060944          0.000679023735
C          -2.64995452701733   -0.71596410653560    0.29436290029030
C          -2.87029281408015   -1.82657103129256   -0.48177236666171
C          -2.08797478476215   -2.99759949418834   -0.42348947514034
N          -1.49190423515686   -3.97939221741074   -0.41718286392442
C          -3.87859577002594   -1.95315601526875   -1.45910236021224
N          -4.65629631268069   -2.13558550737028   -2.28497772026141
C          -1.55636995293214   -0.55073612936544    1.24044493036171
C          -1.59993821006808    0.76643491579266    1.75722092783317
C          -0.69350559152847    1.23444264165188    2.67682455938696
C           0.30965032689919    0.36007233113457    3.10694489641254
C           0.34469358876676   -0.95623441275405    2.58796605713849
C          -0.57338797882795   -1.42982225524529    1.65986306893608
S           1.66220410768532   -1.87138386582829    3.25818746728349
C           2.14198754388183   -0.49054413802414    4.20946097788326
C           1.35770952716158    0.59948990000756    4.03736911069189
Br          3.63265824899738   -0.61884181226309    5.34127147886684
C          -2.73550133884466    1.49831488873043    1.16061321888072
O          -3.05937692407919    2.63541682944736    1.42764505008756
C          -3.41183694120620    0.52237147112534    0.26721187726777
C          -4.64157587584947    0.67296757156223   -0.29927901388944
C          -5.41190987373910    1.87700675720078   -0.43049002849449
C          -4.81630843828562    3.13225012677424   -0.63674358339343
C          -5.61072109216551    4.24771048023720   -0.72425227881231
C          -7.00665535836519    4.14408604856932   -0.57029518156284
C          -7.61029552750994    2.90042742805357   -0.42283273007076
C          -6.81303530510612    1.77824623104112   -0.38213149605549
C          -7.57106862296233    5.47333795015262   -0.56599648969719
C          -6.52534865743139    6.40179925164028   -0.71537651855710
C          -5.20631223740401    5.68919572809259   -0.92706795284832
C          -4.12966681700314    6.14308642313814    0.06832466172775
C          -4.54291835020777    5.91387110088861    1.51730204643564
C          -4.78067531970822    5.96100156839741   -2.39048080782381
C          -3.60228855185275    5.14120904078830   -2.89899440680518
C          -6.77536599819102    7.75081552069056   -0.68974086027304
C          -8.08885340951274    8.21096495447751   -0.50623155395502
C          -9.12255498321815    7.27009143725092   -0.38104299805163
C          -8.87850007215389    5.91317323264717   -0.40691131500117
C          -8.41820282461858    9.61274169031576   -0.42537371984770
C          -7.54745859967898   10.64019228063765   -0.42360082855488
C          -7.91081609804280   12.01025302391399   -0.29749866954219
S          -9.54947032913115   12.56538977702799   -0.14841186417164
C          -9.06753465139780   14.21951300161859    0.00035517579724
C          -7.67184050767130   14.33626734103660   -0.07552766508463
C          -7.02993643558916   13.07714471712221   -0.24900581823956
O          -5.70605708491972   12.86370083523849   -0.35318430874249
C          -6.97241129969249   15.61022198274913    0.02213362050231
O          -7.46356342485470   16.69873805759784    0.20801585061951
O          -5.62029091266322   15.50142762874714   -0.11364873186611
C          -9.98510605854839   15.29075371254211    0.19428336390171
C         -11.33125976013731   15.25574484908805    0.21045960995141
C         -12.16058843086316   14.02959929847296    0.02386453833479
C         -12.09346477618021   16.52993834999356    0.47761823087279
N         -12.90523573931097   16.39961253154732    1.66302557265174
C         -14.24947502085252   16.28639079293527    1.65115558611563
C         -14.98868711261605   15.87687606104230    2.71627111250754
C         -16.39770159262629   15.83538033418636    2.79556518131109
C         -17.34477382426596   16.29164313097145    1.91836494348586
C         -18.74786769019546   16.21281229706351    2.12721540722528
C         -19.50714057569664   16.78283381884462    1.15652379608156
C         -18.75769665935508   17.35546509876154    0.09875370884234
S         -17.04477403392491   17.11626639281610    0.38759318788680
C         -19.22133770606106   18.02060424330165   -1.00889428668926
C         -20.57271697783688   18.28378182386739   -1.36099192297048
C         -20.72747710436889   18.98202870093654   -2.50813717219150
C         -19.49978146944014   19.33005359169636   -3.16338812628800
S         -18.14137551032551   18.70075712593273   -2.21842436756165
C         -19.34203713058296   20.01903562793072   -4.30204233008802
H          -0.75533216584956    2.24466519678589    3.05018534522226
H          -0.50709757498839   -2.44269599512753    1.29971892845891
H           1.50933894364723    1.53449909794327    4.54513824494360
H          -5.13672487819850   -0.22202584464826   -0.65833883091471
H          -3.74666923184462    3.20431160430543   -0.73390594791049
H          -8.68311322716421    2.81550268573442   -0.33602359850522
H          -7.26199186682426    0.80281336703244   -0.26071539941902
H          -3.92981838985290    7.20459490684942   -0.09500651064324
H          -3.20803073432412    5.59270622018374   -0.12070673478101
H          -5.49899444688463    6.38896056715598    1.72808684375776
H          -3.79480858711135    6.33085695939383    2.18738965033985
H          -4.62597344517388    4.84973836262875    1.72176326756094
H          -4.54119098817583    7.02354132181842   -2.47329813962251
H          -5.64351611833429    5.76716096186227   -3.03343426564042
H          -2.72311531326668    5.27982917236157   -2.27578756036925
H          -3.35228871059500    5.45871907219702   -3.90920840723997
H          -3.85009274922548    4.08370383719927   -2.92957887484065
H          -5.96720963395477    8.45611056619467   -0.80380530887663
H         -10.13440251073041    7.62677444297979   -0.25002119895361
H          -9.68886182803746    5.20763399841717   -0.29898791388536
H          -9.47387715616582    9.84221726305059   -0.33485463212925
H          -6.48173977106720   10.48107686161134   -0.50044884831268
H          -5.24515841814948   13.71539736549393   -0.30364758896817
H          -5.22863600608608   16.38513700767109   -0.03860073609374
H          -9.50000650272748   16.24717850096932    0.33103109205498
H         -11.92598266537776   13.55109931594184   -0.92687037720619
H         -13.22020148059930   14.27250592070944    0.04274322779899
H         -11.95779976599214   13.29793103554776    0.80679223880164
H         -12.75568974061766   16.75769507788408   -0.36260051601961
H         -11.39567777226450   17.36419286558873    0.60547479263828
H         -12.42038243806318   16.10032230220659    2.49719571266497
H         -14.71952619444897   16.58035247846772    0.72525792222814
H         -14.45719779662223   15.54924421742292    3.60113820045241
H         -16.79800514205201   15.39438343332766    3.70062258941074
H         -19.14851742368459   15.73801764779628    3.00638343857741
H         -20.58171252101916   16.81861252719844    1.17097926228515
H         -21.38638504765988   17.94434940891591   -0.74416912532074
H         -21.67378617578989   19.27426641827967   -2.92789937647048
H         -20.19601818172304   20.38562634570994   -4.84348834851831
H         -18.36910047295211   20.22817254337064   -4.70698281807624
