130
 SCF done       -208.218712047129          0.000765054968
C          -2.05873786877631   -0.68236216078201   -4.24234764509096
C          -1.57341316198959   -0.45063404249566   -5.50547696263340
C          -1.03895839395963   -1.45218364840165   -6.34124262968092
N          -0.59818498673908   -2.22167744572886   -7.07104613092016
C          -1.50360493417003    0.80492640379959   -6.14403122930635
N          -1.38918461965490    1.78397766092887   -6.73511828431708
C          -2.03539408958973   -1.96900439868238   -3.55822733824131
C          -2.50293720328962   -1.78346195710681   -2.23615150602752
C          -2.59516771221121   -2.81043558091368   -1.32920115078834
C          -2.20367161544777   -4.08645353323239   -1.74747694892495
C          -1.74106982202865   -4.26449676085542   -3.07248447941244
C          -1.64970894585215   -3.22504662864070   -3.98974661506325
S          -1.31331310764017   -5.92077166708930   -3.38233510070601
C          -1.75406811249246   -6.34347916687153   -1.74901879107884
C          -2.19900513636426   -5.30129720938129   -1.00835370939718
Br         -1.58406445642295   -8.12156330698125   -1.17525521272177
C          -2.85609959415836   -0.36317291774611   -2.02724242641405
O          -3.32045765234594    0.10020521753468   -1.00740775682651
C          -2.59851451670293    0.30688118922456   -3.32540922169503
C          -2.97369829124909    1.56821424660539   -3.69413076868030
C          -3.39774342306253    2.67618216359557   -2.89691553713630
C          -4.17535553156080    3.67387344035400   -3.52469740155408
C          -4.59801928453416    4.75863753202821   -2.80586137526757
C          -4.23338702674173    4.90245621282953   -1.45139574639400
C          -3.42629776927371    3.95247095327926   -0.83591548328863
C          -3.01734706504308    2.85226562818545   -1.55558945390906
C          -4.80570739818857    6.12322302025080   -0.94896498155251
C          -5.52438065317464    6.74923401644030   -1.98542058745022
C          -5.44518068003009    5.92843695860345   -3.25251497462469
C          -4.76071066600301    6.71314371933570   -4.38742635641125
C          -3.36651960446292    7.20087166842921   -4.01240313379258
C          -6.84078795186432    5.46701419780565   -3.71127731980627
C          -7.58768224948144    4.68580019853673   -2.63680436386203
C          -6.16976797533441    7.93880158618417   -1.76561099124829
C          -6.12434953495341    8.54196879773787   -0.49321215507030
C          -5.39769191605864    7.89842063579520    0.52682113551791
C          -4.74455092202280    6.70745130259395    0.31101411442243
C          -6.81612599537737    9.78093092857873   -0.28302869930382
C          -6.90351506055123   10.43578064181883    0.90536578797551
C          -7.56874747911623   11.64979602561226    1.14620129942246
C          -7.59354646317703   12.21889501356568    2.39708380275511
C          -8.19601659511888   13.42733938422552    2.82209977300107
C          -8.02604230711638   13.70954143882910    4.14684126180922
C          -7.28165326902520   12.73876276678540    4.84782181626981
S          -6.80225758093358   11.44946476951247    3.76451671771426
C          -6.90817596767318   12.67306474005406    6.17524829535774
C          -7.14090443825251   13.56077609822436    7.24751571743028
C          -6.60161953087469   13.14875026091913    8.42846370702316
C          -5.90975164672862   11.90667816413854    8.37689396624168
S          -5.97743460740561   11.29994826670150    6.72696198013950
C          -5.33232987200565   11.27786695489960    9.44630886076432
C          -4.65566722003086   10.02577574442644    9.50555474183426
C          -4.32576603691682    9.47556820676236   10.77427818771046
O          -4.66096712054435   10.22724561947966   11.86189110844137
C          -4.37749032949372    9.72599247828228   13.14486463559219
C          -3.71910745171227    8.23802792432798   10.84867658012571
C          -3.40535786833678    7.48847893025803    9.71003329167568
C          -3.70544955718336    8.04810576065152    8.44216338396048
C          -4.30293997363110    9.28655652064102    8.36709702750650
O          -3.37442979532911    7.30214944464779    7.35297641541480
C          -3.70150657380431    7.78157300391448    6.06255529529246
C          -3.31018610241871    6.70667565797633    5.05993653418720
C          -2.80543293260682    6.18261225738339    9.75684893151130
C          -2.39342227014555    5.51209588082195   10.85032969605563
C          -1.80690144756879    4.19338196210835   10.85064305574902
C          -1.19245199379383    3.70794373632410   12.02578117813612
O          -1.19551783633677    4.54755571578025   13.10610665364096
C          -0.59302444915081    4.11219227547286   14.29829620413213
C          -0.61929276049369    2.44956391120368   12.02624385773403
C          -0.63176968562011    1.62853054768583   10.89968124142666
C          -1.25383674071342    2.10606273062773    9.72572964037849
C          -1.82614583934467    3.36460205865174    9.72649745644042
O          -1.26648651774792    1.25158021154406    8.66121696465690
C          -1.80258985096473    1.66764037714623    7.42284678162855
C          -0.87397601988773    2.60399423874120    6.65400892295049
C          -0.02221537045919    0.30874090150724   10.89227783300564
C           0.43232050652710   -0.36646692878156   11.94315795127836
H          -2.95630196075458   -2.63412376469993   -0.32807479479532
H          -1.29551556139998   -3.41425986500124   -4.98905251353672
H          -2.51181616760372   -5.38313576870507    0.01658659949578
H          -2.98424457155390    1.76978664188973   -4.75966967582586
H          -4.44411158103307    3.55564206084752   -4.56487139001516
H          -3.11954697211926    4.07598363258006    0.19159155412097
H          -2.37235656931585    2.12724147558413   -1.09015364411185
H          -5.38689541461040    7.56980665871522   -4.64558833701567
H          -4.69452232361766    6.07021966519967   -5.26741978967007
H          -3.40858973297073    7.85790840823672   -3.14632692036011
H          -2.92812670885995    7.75104977558906   -4.84159112771626
H          -2.71621445123398    6.36173987307855   -3.77561262711461
H          -6.72783317219682    4.84393874777088   -4.60096889851470
H          -7.42470181429060    6.34622515190965   -3.99175932494081
H          -7.03091032546709    3.79641944576464   -2.34981341157440
H          -8.56192505556017    4.37666630444610   -3.00850754148835
H          -7.73595651721497    5.29788617693601   -1.74985324464634
H          -6.72232114215044    8.42388132050611   -2.55809540567647
H          -5.34440897634491    8.34777410818569    1.50582898412264
H          -4.19328855486371    6.23192569517847    1.10889772435609
H          -7.30651483907533   10.20910365808221   -1.14863861380193
H          -6.42542174538223   10.00477760880281    1.77514670417891
H          -8.07334124310514   12.15742347338368    0.33586361099164
H          -8.73641706157080   14.05368386302059    2.13387859353794
H          -8.41576684741190   14.58529156275862    4.63549098059569
H          -7.69770114296756   14.47209462669686    7.11864158217286
H          -6.67983301048331   13.69688176298921    9.35123272846922
H          -5.43635135591247   11.78452109677146   10.39659735606065
H          -4.73118390548846   10.48569858725836   13.84053662953774
H          -3.30312845305182    9.57526603055537   13.29022396120953
H          -4.90694373080582    8.78722319700741   13.33574777122315
H          -3.48078806532678    7.81167784306921   11.80838675175220
H          -4.49342185068029    9.71799986098426    7.40236226330001
H          -3.15317469244068    8.71033187296873    5.85441869295769
H          -4.77800477079026    7.98833691371754    5.99603731142676
H          -2.24694777830931    6.49513504086484    5.13606872797100
H          -3.53513706168025    7.04693314008258    4.05334301897105
H          -3.86250319212507    5.79209662372577    5.25891373744624
H          -2.68250055305472    5.73622112437448    8.78153849695429
H          -2.46243589758360    5.96521980861910   11.82795098311304
H          -0.71975388761687    4.92962510007080   15.00708333494457
H           0.47569095200771    3.91680499856443   14.16255764627299
H          -1.08062152290516    3.21471572236085   14.69308162027481
H          -0.13314080621873    2.07831427168395   12.91251635682198
H          -2.32479692784553    3.73176026133051    8.84612398348671
H          -2.79153318478439    2.12240437379307    7.56012886538659
H          -1.93121378204269    0.73659817308850    6.86275713367576
H          -0.70825920615914    3.52821952471080    7.20179751840709
H          -1.31227855805993    2.83878241784049    5.68778064846600
H           0.08767282460590    2.12149994532668    6.49783796323693
H           0.03706472561051   -0.14209330431314    9.91168899498824
H           0.38230135249671    0.00794253655153   12.95157093206877
H           0.87075871624121   -1.34276840666282   11.82902816194234
