93
 SCF done       -204.011858897168          0.000804850592
C          -6.13136379768863   -3.02464943672369   -2.22119753777698
C          -7.23001422589433   -3.40916952651638   -2.94258662619706
C          -7.69554991062194   -4.73904940381823   -3.02852449862364
N          -8.11558776978696   -5.80067856254474   -3.14316695198364
C          -8.05786441668629   -2.53588372248523   -3.68061579530474
N          -8.78243867964659   -1.88422090420874   -4.28691314110244
C          -5.30728178024609   -3.89182589930503   -1.39115200416546
C          -4.33043926628638   -3.10500029864384   -0.73083652316800
C          -3.40718719698992   -3.64137257257612    0.13440759496485
C          -3.45294540097134   -5.01953993907893    0.36539518317555
C          -4.42992692271935   -5.79968556340246   -0.30171311299576
C          -5.35988215703195   -5.25818935502412   -1.17969847121172
S          -4.30488717601429   -7.47886547769466    0.12237734279245
C          -2.96211335638266   -7.11796774861340    1.17492543150828
C          -2.62375756359772   -5.80650753874872    1.20966860619687
Br         -2.13701139489477   -8.50377584739674    2.12899743760374
C          -4.47220407090772   -1.69597729246150   -1.13061980256712
O          -3.72378809121401   -0.78730769350557   -0.85772018851601
C          -5.63725378256453   -1.66583657639042   -2.07053938495074
C          -6.02343431330177   -0.56880468692159   -2.77104293299669
C          -5.66369554539290    0.76015823459959   -2.40933767901781
O          -5.60401413729380    1.73048313774958   -3.35629974994055
C          -5.43450365172514    1.34256589577549   -1.17679776102256
C          -5.42746382794458    1.09914065889094    0.27673603745722
O          -5.67305972279000    0.11360630923696    0.91655244880584
N          -5.11400681598663    2.34686838841934    0.80951602671177
C          -4.96689126757243    3.37341365336049   -0.11624909342328
O          -4.71184672254047    4.51941478899983    0.14669648026309
C          -5.20276591873791    2.71463222535807   -1.40783373919503
C          -5.30629813084457    2.91730569782736   -2.77649825992400
C          -5.15093504044904    4.07917827703848   -3.57885327592937
C          -4.84501523755107    5.28494520223502   -3.04257419179953
C          -4.67188535806565    6.45200652389048   -3.83212675342873
O          -4.36720997123040    7.62822151166243   -3.22081737757377
C          -4.73912610340336    6.67383839469396   -5.19935422567081
C          -4.99127546350216    6.06386730891451   -6.51317612227594
O          -5.27160968828426    4.93371131609088   -6.81360069241292
N          -4.82714283061280    7.12005974158220   -7.40822183127943
C          -4.48433328615938    8.33853131766949   -6.83301853902074
O          -4.24589458869189    9.35891700157694   -7.42795354786885
C          -4.45621810603672    8.04153104483117   -5.39877419051116
C          -4.23858149997148    8.60165392469562   -4.15316272925547
C          -3.96928123703477    9.96505529302193   -3.88894719446857
C          -3.75060374067732   10.58352879642022   -2.70558797989813
C          -3.56679413161573   11.99680632613349   -2.71116486604275
O          -3.60397675177707   12.62662152333516   -3.90990365551829
C          -3.39558861122634   12.95786743977479   -1.73194850277995
C          -3.26097902273867   13.17937833568769   -0.28520312700672
O          -3.24333113925659   12.40801314607856    0.63496442787631
N          -3.14510507186709   14.56459626811363   -0.17766886913269
C          -3.18809808297256   15.26884575445670   -1.37877047914812
O          -3.10426486136381   16.46213664144285   -1.48925227755228
C          -3.35133362395443   14.21374098352416   -2.38894387842366
C          -3.49294808060291   13.96613535859109   -3.74250305243491
C          -3.60867293700222   14.79314751833314   -4.89291808366288
C          -3.79180818522788   14.23904673110471   -6.11897952400943
C          -4.03480725850586   14.98312143785382   -7.29638423832543
C          -4.39546169915788   14.50495953628678   -8.51771420091990
C          -4.77111377682909   13.19311522876447   -9.02090531893089
C          -5.36942215797351   12.15594899342195   -8.35664363422323
C          -5.88315620377893   11.00971306518005   -9.00843368032914
N          -6.36563149783405   10.08503502927052   -9.48661336042074
C          -5.68810270501758   12.09098785928417   -6.98428188599124
N          -6.01390894097765   11.95064985800167   -5.89218244639523
C          -4.61327800448088   13.23878006687789  -10.47429773701466
C          -4.39203862101462   14.57907457213967  -10.87866487512263
C          -4.32375441970207   15.43678010435760   -9.68436164683322
O          -4.19380957746002   16.63716741171257   -9.63251184587784
C          -4.24105856915379   14.94065636573335  -12.19617015211387
C          -4.29716965159485   13.92945954227167  -13.16003508965898
C          -4.48965388778602   12.58920312495227  -12.74452662391030
C          -4.64787669706679   12.22511817662558  -11.41321994039797
S          -4.50488351957466   11.49815931006827  -14.09558322400639
C          -4.26102140540694   12.83722848151123  -15.18614041477485
C          -4.17068342185618   14.04076103944039  -14.57179523202891
Br         -4.15091554727283   12.51944668169130  -17.03052874441727
H          -2.67767151036785   -3.01405413941708    0.62162804800589
H          -6.08000339381679   -5.89458623758960   -1.66632432542666
H          -1.82264348711737   -5.40931504565593    1.80579577802116
H          -6.64190230071488   -0.65833046569994   -3.65445603334158
H          -5.02053176841242    2.50010324656202    1.80398819434454
H          -5.28457429731790    3.95594109598779   -4.64524520555555
H          -4.71599918451668    5.40553857227354   -1.97507824595175
H          -4.95756377195547    7.01020211332707   -8.40447679691445
H          -3.97914540698462   10.56435281693586   -4.78956582345021
H          -3.73235370991965   10.06933825935078   -1.75805671110653
H          -3.03895349094129   15.02755502303409    0.71416613332558
H          -3.60542296082025   15.86102367562956   -4.73457579957636
H          -3.76028363657853   13.16301202035596   -6.19922178544262
H          -3.88431923009677   16.05717925773967   -7.24943582105024
H          -4.08031167447942   15.97060782569335  -12.47325316880373
H          -4.77644137506912   11.19015372582096  -11.14440330319299
H          -4.02147156944974   14.96980974513071  -15.09092963702489
