86
 SCF done       -175.169319613330          0.000592446363
C          -7.86760067191870   -2.82876060750553   -3.77420739407156
C          -7.70760441842767   -3.62569030651055   -2.66505445147139
C          -7.28260720012442   -4.96913209069342   -2.71667498531811
N          -6.94811921330705   -6.06739915281107   -2.68433966010182
C          -7.89728836269864   -3.24610025747379   -1.32041805429736
N          -7.99743943524000   -3.02870240395070   -0.19582824567202
C          -7.53992094860176   -3.23856387585078   -5.13733075661898
C          -7.72986992110096   -2.12699380877645   -5.99073861785829
C          -7.49193858229319   -2.17365802816985   -7.34234108835758
C          -7.04045967686241   -3.38321057424307   -7.88082833892827
C          -6.85588513757184   -4.49176789105866   -7.02208039926396
C          -7.09856052206735   -4.44137274469923   -5.65363121329896
S          -6.29584947196305   -5.88724872843499   -7.89244228911506
C          -6.31432330948007   -4.97332238501083   -9.37744556876879
C          -6.72024995070104   -3.68980878491180   -9.23172857934490
Br         -5.79678985645707   -5.80009682863135  -10.97960076926159
C          -8.20832300067673   -0.98004599688813   -5.19964510488508
O          -8.50774129241190    0.10684271485033   -5.67350593077852
C          -8.29825761365363   -1.44524672331316   -3.81324747619843
C          -8.78690140630968   -0.79375969231697   -2.69140649964511
C          -9.08583960884419    0.52678550113643   -2.38010863788824
S          -9.68888162113917    0.80087494446322   -0.74300309497642
C          -9.66320411464408    2.55077470173097   -0.85587674244758
C          -9.25687370782832    2.91218229539670   -2.15760577572324
C          -8.95138362349831    1.79117506352741   -2.98392237660990
N          -8.58625467372270    2.28334755616950   -4.17746831032307
N          -8.67028295263469    3.61302286192852   -4.20176088708756
C          -9.05770999689070    4.01932310508320   -3.01563285934303
C          -9.99761312533585    3.25213983719110    0.29609514973983
C          -9.83714158401313    4.59214682608458    0.60446892546073
C         -10.16332889945763    5.17386707610499    1.84892737514428
C          -9.81115422207851    6.49062770389429    1.96842537254575
C          -9.19288293589525    7.00998947639590    0.81896132433836
S          -9.09285865727547    5.78698464265626   -0.42385046054059
C          -8.66124033819330    8.27668075841004    0.60426424441692
C          -8.55481915595062    9.36012134141048    1.49110998863184
C          -7.89419989668572   10.43847829707555    0.96634948959407
C          -7.46454841623183   10.26877719439655   -0.36551565853583
S          -7.93158783223143    8.67869245214420   -0.93097519773714
C          -6.69848996631675   11.16874176048852   -1.08487280024540
C          -6.28669893823077   11.10557197574659   -2.41113492718985
S          -4.97638592717224   12.16712506770783   -2.91656150610525
C          -4.95150556029379   11.59244782920030   -4.56895358363643
C          -5.96085595202644   10.62541281046713   -4.71486518633226
C          -6.69455921167009   10.35889622436703   -3.53056786356980
N          -7.64741472942712    9.46508658852056   -3.88163106292087
N          -7.56207056243595    9.14133726034226   -5.17543148637895
C          -6.56681808861437    9.81351684854263   -5.70014669695403
C          -3.99434885384857   11.90842876039316   -5.53163280206972
C          -2.95829953167559   12.80970098626211   -5.50500076012845
C          -2.67985219795214   13.95475360720537   -4.68116831808984
C          -3.61137212699586   14.81394285012183   -4.14800141045840
C          -3.28457745641203   15.95732558718618   -3.39608926246038
N          -3.06407909495202   16.88589528771651   -2.75711035005049
C          -4.99069547817055   14.69388402269091   -4.40568318335777
N          -6.11287069259620   14.65315971162551   -4.64703987817419
C          -1.24224833871016   14.20392041112476   -4.75415427817020
C          -0.69786019871200   13.39317562377759   -5.78216627798451
C          -1.76909773935574   12.55061104781492   -6.35460360434377
O          -1.68912770825792   11.77318238367959   -7.27912985204866
C           0.63295206329145   13.42509268164563   -6.11779068267511
C           1.46712212344012   14.28603908262561   -5.39528088952618
C           0.91491079398387   15.08244540743353   -4.36449541701510
C          -0.43543314892654   15.06020404199404   -4.03270213414992
S           2.12681615043474   16.05976700208189   -3.59381899747478
C           3.34219895174132   15.39689376420516   -4.65443733136555
C           2.86688922452591   14.49024495288047   -5.54048530651597
Br          5.12283792985481   15.96240398525886   -4.48903093359305
H          -7.64644876248789   -1.30546593086819   -7.96367819122073
H          -6.94340589653824   -5.31676280378848   -5.04618600395960
H          -6.79166268176489   -2.98695128242786  -10.04160675067468
H          -8.95426874575096   -1.44848142083521   -1.84336922775668
H          -8.41222493791251    1.72806812277456   -5.01406170719940
H          -9.19129814253009    5.06419480449910   -2.83486207804842
H         -10.38351709714953    2.64397481582325    1.10587631852362
H         -10.63913325732429    4.60255893127227    2.62603309645100
H          -9.97844639821801    7.08433219132153    2.84872122490340
H          -8.94685325931474    9.31999255660228    2.49104775038326
H          -7.70598027621056   11.35153483115861    1.50250214626530
H          -6.32872775156002   12.01696936226069   -0.52212068768326
H          -8.36389324441626    9.04379023405341   -3.31330117671123
H          -6.32253198422621    9.71107083947935   -6.73723573340478
H          -3.98927411682141   11.24694537461851   -6.39369930147447
H           1.02110870490490   12.80531217498860   -6.91069692884147
H          -0.81378616371066   15.67997005334536   -3.23641932477343
H           3.47630363030516   13.98351611342777   -6.26632308755153
