100
 SCF done       -193.983850242581          0.002820856038
C          -4.95804455528360    3.76699833233681   -2.29814704970164
C          -5.19064356894685    4.72926897787902   -3.24288772682643
C          -4.19552461488760    5.59026875791437   -3.75240627336384
N          -3.42370825908579    6.31889585111359   -4.18835340449983
C          -6.44381377614522    4.97818460476925   -3.84499322535219
N          -7.42381112263494    5.22956458652049   -4.38651961553636
C          -3.67262698382165    3.45006635449178   -1.69286977423459
C          -3.84615864553526    2.35290412244097   -0.81401755419876
C          -2.82854992120500    1.88563946771579   -0.01870418777152
C          -1.58113356054939    2.51003546128257   -0.11053004139282
C          -1.40181534231773    3.56178981804935   -1.03935761044596
C          -2.43465221668527    4.05005351875157   -1.82988807967869
S           0.22410224961656    4.17192004205864   -1.00773625505136
C           0.62655292665010    3.05168224741960    0.26621144127858
C          -0.40224983712468    2.25137624100710    0.63841255148450
Br          2.35490681132683    3.04271574058974    0.99398000149955
C          -5.24812707996020    1.89564449734200   -0.86154046065861
O          -5.73044261502053    0.98897450025110   -0.20623221695453
C          -5.94199421065298    2.85069346953436   -1.74671108508613
C          -7.29183872968865    3.01154930472863   -1.79514274399358
C          -8.29303539687299    2.09274584976886   -1.36614018650461
C          -8.38741731502651    0.74391371468333   -1.59076291772712
C          -9.63494762790282    0.31002988442538   -1.02020612314397
C          -9.84555510851241   -0.92871667409598   -0.60767831604718
N          -9.94789131424459   -2.03858289918755   -0.16820113568526
C         -10.33001059719348    1.47522708928839   -0.51637248658212
C          -9.50658153399443    2.53789584808933   -0.68745153154310
C          -9.51182480984547    3.86337743854294   -0.09709828154077
C          -8.35850242035552    4.26405358591382    0.72730091756684
C          -8.44134104818204    5.69395439127934    0.86198756004705
C          -9.60299374724684    6.10602607259642    0.26848501634899
C         -10.23623662865893    4.96836770729494   -0.38371525202025
C         -10.12857471381404    7.40380819831990    0.27043991746133
N         -10.56988628829985    8.46374401626949    0.26845117008747
C          -7.44326126468309    3.43561585235293    1.33171745132945
C          -6.07495835961133    3.76263321543407    1.64858180344654
C          -5.33240451795409    4.88280098099964    1.29126909139462
C          -3.99076237838428    4.93200649764357    1.62138098820059
C          -3.38042200413498    3.85382279334964    2.25039680025078
C          -4.09230606301424    2.70417186882259    2.54934550784579
C          -5.45607775825710    2.65518748583029    2.28074033506344
C          -6.42177083002844    1.57939440946205    2.43959563238701
C          -7.67557906490300    2.07923291298929    1.85684362755477
C          -8.89631682486468    1.60638416325372    2.14583359566508
C          -6.22283088607302    0.45899991751372    3.21845214445067
C          -5.28797332530457    0.48442644208965    4.32219786957949
C          -5.52246468597622   -0.58962637308583    5.13442694364134
C          -4.90833455203916   -0.86305718005129    6.36447814104617
N          -4.42798624153278   -1.07639705273081    7.38368318832943
C          -6.56847351347072   -1.38302390090713    4.54355903340125
C          -6.98801613388493   -0.78497791584648    3.38651090153303
C          -7.98411521440259   -1.46127297842981    2.57247470972183
C          -7.95363343087640   -1.92558816825353    1.27946705063182
C          -9.28238384007932   -2.60672531399594    0.96778198423963
C         -10.03970708370153   -2.46096601175533    2.26414927054564
C          -9.25057813756310   -1.83450945486980    3.16542425023459
C         -11.34091157345529   -2.93873228622699    2.44796703398199
N         -12.41415346525471   -3.32069187388432    2.58498141324820
C          -7.00613134336463   -1.84917161506395    0.23455712781720
C          -5.64973354194278   -1.77910661275463    0.19850279898208
C          -4.61021040025636   -1.99501480819928    1.17210296627720
C          -4.73948895929627   -2.72144471824355    2.33101451178111
C          -3.70999182696739   -2.87972212793540    3.28028993243956
N          -2.90858968857039   -2.99397030269073    4.09422109221891
C          -5.88517426758861   -3.48927867492039    2.60878628212551
N          -6.77856925744583   -4.18432359947972    2.80120485314619
C          -3.35214013606824   -1.55073004263761    0.57887755191435
C          -3.58356142105837   -1.20163263660996   -0.77709867025155
C          -5.01268007704760   -1.37801660060363   -1.08767966952158
O          -5.56790278294252   -1.23217166561097   -2.15216005796154
C          -2.57750015644268   -0.79320014646240   -1.61793372890388
C          -1.27771396111139   -0.73740898596038   -1.10413355623383
C          -1.04930378087933   -1.11747769982214    0.24042553636414
C          -2.06988791032201   -1.51633439667687    1.09689171369219
S           0.63588154291728   -1.00761181546571    0.65529055971547
C           0.99939192380895   -0.42660837311057   -0.94882388741757
C          -0.08222249790556   -0.33826974547257   -1.76017433283980
Br          2.76325126218705    0.02800442958274   -1.39614089705652
H          -2.98894318396035    1.06961738177798    0.66577634338367
H          -2.26173011662126    4.87508599944080   -2.50036929683627
H          -0.33501418727984    1.52106832585910    1.42361853367185
H          -7.67986817665179    3.95861739576900   -2.15652098892198
H          -7.67524020304360    0.11910393339798   -2.09382849495597
H         -11.28638167591401    1.44583760188247   -0.03067406505606
H          -7.80469895088566    6.29731933768412    1.48104700333786
H         -11.10448141193692    5.03555521634653   -1.01123059646856
H          -5.79060630203650    5.69657545504693    0.75183735573521
H          -3.40702581245430    5.80405310681037    1.36885085661882
H          -2.32786657179195    3.90214443501067    2.48580503685287
H          -3.57064466682208    1.85528994893259    2.96070487394327
H          -9.03811195690251    0.68422494265618    2.67820404508747
H          -9.78229901242115    2.15542038645716    1.88500210361486
H          -4.65238456858048    1.30834467888221    4.57751969851127
H          -6.92468260772337   -2.31325139842667    4.94776556906542
H          -9.12999938388558   -3.67343947793398    0.75386224329768
H          -9.51373306061215   -1.61843359248057    4.18632489869489
H          -7.44765278283148   -1.85034708888027   -0.76054548187730
H          -2.78274864675269   -0.53605014907923   -2.64538488431976
H          -1.84999064108886   -1.78466544490625    2.11758506095936
H          -0.03906604773630   -0.00505900508385   -2.78106374870326
