78
 SCF done       -155.074958671089          0.000465107052
C          -6.49516039285555    6.78141674310423    2.50836679469808
C          -5.49174178209670    7.45101087969782    1.86037542924857
C          -5.47204825663258    8.84850079289875    1.66151518787008
N          -5.39234866980032    9.97767304107315    1.47124028798868
C          -4.32368541048602    6.86916005138381    1.32298591245346
N          -3.34533977022799    6.48039275182879    0.86394746755884
C          -7.67893768271504    7.39594482232789    3.09328967403121
C          -8.42961309757843    6.40219442390979    3.76814044368440
C          -9.59966512891730    6.67786228836507    4.43292559797307
C         -10.05855914585943    7.99859114193132    4.42585037756892
C          -9.30425622185322    8.98641874196491    3.74700655565708
C          -8.11939541735200    8.70869144786150    3.07930107582431
S         -10.04706700998117   10.55312847480763    3.86993174818255
C         -11.34095955947017    9.86917286314134    4.81804194029822
C         -11.22636508965427    8.53680880557245    5.03176301838692
Br        -12.71983111574040   10.97872910560705    5.43724117768543
C          -7.73853769008280    5.10284188952927    3.65818394652242
O          -8.01165324719076    4.08978896597276    4.25805985083332
C          -6.57812337531308    5.34378114840420    2.75314081176202
C          -5.74192217343711    4.39713849668055    2.27046538901306
C          -5.88106717265218    2.95570368391190    2.39398647982864
C          -4.78115246869304    2.17711057745086    2.40275933672459
C          -7.17009461666905    2.38447910808540    2.43119439317823
C          -8.26233419482350    1.86153730934493    2.38493687760359
C          -9.53328167194093    1.29923818755649    2.36440420148266
C         -10.59704608943260    1.93246202137235    1.81472642680234
C         -11.90525739211483    1.39426559948015    1.77478065041874
S         -12.32494514507938   -0.14749431384903    2.48011251422900
C         -14.00442892956043   -0.03676490230886    2.01145515189692
C         -14.21554244544928    1.16375502929689    1.32528825305501
C         -13.03815238965457    1.94789812923607    1.20622117817501
S         -13.39368131796565    3.41398045378518    0.35160174694886
C         -15.05666308688306    2.84667864511094    0.23431040789069
N         -15.32179011452859    1.71549820761167    0.76150023923545
C         -14.89311050176157   -1.05945108369215    2.36197268710355
C         -16.22856979737859   -1.06076826396585    2.03321273071475
C         -17.18062643124361   -2.01930522974970    2.39520745189916
C         -17.03937429821894   -3.12492109444276    3.21512553397506
C         -18.06676254217231   -4.03817608021575    3.54975026667786
C         -17.68924851944596   -5.03597460403008    4.40541371590305
C         -16.33808780156456   -4.96093232530401    4.78931181884356
S         -15.56521803940713   -3.59117661797833    4.03145876336739
C         -15.57854317243509   -5.76577451036193    5.62587436965769
C         -15.91113849839661   -6.91720348755471    6.36345394283703
C         -14.86451894801563   -7.42952748051755    7.07622562281120
C         -13.65048527215264   -6.70966819494173    6.93451431170172
S         -13.89882641591821   -5.35206918759919    5.86093541863338
C         -12.45429394878855   -7.00783863347377    7.54320498828297
C         -11.23321663598741   -6.31896102799833    7.41196371300311
S          -9.83655208197260   -6.84239216918289    8.34908405856404
C          -8.78735848626892   -5.62951487433493    7.72581428171761
C          -9.46042359831479   -4.83793115194039    6.82607719205043
C         -10.82670736345318   -5.23022376481150    6.65523739837735
O         -11.43297086371870   -4.42930437325878    5.75528017086436
C         -10.49260071301132   -3.53702421155755    5.35503384812161
N         -10.89304725030355   -2.58082191319549    4.40329462589875
O         -10.05065804506502   -1.78078642636839    4.02931909388251
O         -12.04438993884190   -2.61047055678859    4.01394493149995
C          -9.27604552770677   -3.72449316224310    5.96123345244068
H         -10.14302139362711    5.89662627076205    4.94086536111067
H          -7.58291833084610    9.49720712698826    2.57892070681791
H         -11.93376939737877    7.95585486253302    5.59481520661169
H          -4.86386972858114    4.70968802545067    1.72019295243994
H          -3.79429345886463    2.60343068497194    2.34235140206439
H          -4.85661719454192    1.10890351761482    2.50460632038037
H          -9.64543948124131    0.31955871802736    2.81364897975010
H         -10.47336364500135    2.90938362148188    1.36247774810915
H         -15.78486093542910    3.45382157959759   -0.26623887849614
H         -14.44862785643368   -1.87076197457153    2.91836326999371
H         -16.58253307804011   -0.23277769769478    1.43322877770165
H         -18.17892268813977   -1.87314279887958    2.00036881596893
H         -19.06049361368015   -3.93199296053395    3.15024259836645
H         -18.34447900606747   -5.80986733711138    4.76378971707906
H         -16.90121093596933   -7.33757276256962    6.35303494790320
H         -14.92473948922652   -8.30462527924644    7.69912507265312
H         -12.43951520310572   -7.86330579878615    8.20479313515250
H          -7.77009870005875   -5.57900693692729    8.05144421533018
H          -8.39284389943523   -3.14232504779127    5.79956471758807
