116
 SCF done       -222.191525103682          0.000541847830
C          -3.95665574470439   -0.75218252934065   -5.39575096627753
C          -4.53899500610618   -1.97046378226765   -5.61755627322575
C          -3.81726006235681   -3.18054146885313   -5.70434183211543
N          -3.28041233485945   -4.19234279173667   -5.77376230891615
C          -5.91332761165764   -2.18742849254283   -5.86432443421747
N          -7.00184062554346   -2.44389974959011   -6.12058594299539
C          -2.52393978903121   -0.50067929132486   -5.31065884724214
C          -2.31008232230412    0.89874216358347   -5.31820799773968
C          -1.05567476081619    1.45831629425622   -5.27778760699783
C           0.04146110833074    0.59412215238751   -5.21290590919068
C          -0.18185970226125   -0.80423717173212   -5.19118888121740
C          -1.44988759984729   -1.36927075887049   -5.24200672644307
S           1.31070686924646   -1.68799082138127   -5.09842816832432
C           2.20239804040217   -0.18952916747727   -5.09366120115255
C           1.42451889014001    0.91746525825131   -5.15700181718880
Br          4.07502596126192   -0.22671715960946   -5.00512212848912
C          -3.60688464258134    1.60235591520369   -5.37018169074151
O          -3.75721965046007    2.80069318530682   -5.44789116653861
C          -4.63893707584931    0.53141997643729   -5.29997819589957
C          -5.96867795670806    0.67804368285210   -5.03734661576738
C          -6.71876115768080    1.86553426871893   -4.87939679242638
O          -6.23843662348391    3.11108177623612   -5.12609326971040
C          -8.03250854321917    1.99510605162651   -4.45242180918887
C          -9.20876867180740    1.24882903614119   -3.97370240780183
O          -9.37494410134438    0.07401848435970   -3.79076031529539
N         -10.14818840625779    2.24740416454350   -3.73771514091412
C          -9.71396142393507    3.55258372128091   -3.98152013783836
O         -10.37505139023702    4.54240225895362   -3.82008910723283
C          -8.33323141874360    3.37201676866627   -4.44407337921189
C          -7.18783750377324    4.03418865068018   -4.86557379843485
C          -6.91077323245355    5.42131635343088   -5.01242666764138
C          -5.70065675151547    5.87375169172260   -5.40779255206559
C          -5.36909921887067    7.27901240283849   -5.45864015656507
C          -5.82430755009277    8.11189818960826   -4.47234898053702
S          -5.29314009823597    9.73188994807184   -4.59234025794906
C          -4.45665813915136    9.34506847753338   -6.06359313576256
C          -4.55681672048576    7.99053096096696   -6.42041055369714
C          -3.92830584507108    7.55189081937394   -7.60909914255083
C          -4.02625692154295    6.09405350295121   -7.96843903068749
C          -2.91438991425253    5.28486879874326   -7.29364377964921
C          -3.20091911425296    8.43916856947492   -8.39410356091290
C          -2.45505115844547    7.93655967774794   -9.60293908197566
C          -3.32124550930580    7.94600626155307  -10.86359850820115
C          -3.13200080715165    9.81028830821621   -8.04636954496292
C          -2.43888085068507   10.92176936637784   -8.66981837844738
C          -2.56337229443046   12.06933812490450   -7.92835311143482
S          -3.51823252829228   11.91976554705878   -6.51917256119630
C          -3.75466900806918   10.23301074864419   -6.86082006908300
C          -1.74259376976624   10.94097078131951   -9.92712926245598
C          -0.68158416634905   11.74920864648576  -10.19572656930193
C           0.02082041459998   11.84781096270682  -11.41832997921932
C          -0.21255334529956   11.21663867162284  -12.61535082398187
C           0.57251304558297   11.35970943417034  -13.79069643059175
C           0.15012854044629   10.62013532430094  -14.85446370557732
C          -1.00195458936638    9.85035209140955  -14.58443826017911
S          -1.52552999244179   10.10090678715700  -12.94171349618425
C          -1.72506684547932    8.99692253802169  -15.39872806844708
C          -1.55756127600329    8.63173171328297  -16.74799609982982
C          -2.53468662489281    7.79594419939241  -17.21001568064267
C          -3.53540145456161    7.47873034256251  -16.26114997959838
S          -3.15930914869858    8.23794052444466  -14.74395206961957
C          -4.60834990892726    6.61841362899465  -16.45071410296607
C          -5.61763545305376    6.28813810579418  -15.55515278686876
C          -6.05677138357755    6.90725849283078  -14.39013822610584
C          -6.69500990098193    6.07545867701932  -13.34539153449351
O          -7.02437388592720    4.91171901544206  -13.43047950080665
C          -6.79327564672383    6.94866356435692  -12.14998374975683
C          -7.20117963183930    6.64474792053710  -10.88490199106026
C          -7.18623513583689    7.65704489721789   -9.89516294997484
C          -6.73299168328161    8.96172348057851  -10.24017776143775
C          -6.71254898561188    9.96521761040405   -9.25300222049749
C          -7.16549946420432    9.69823063158169   -7.99238345005607
C          -7.63857040809963    8.41649098337612   -7.65863762205891
C          -7.63215390893737    7.40995581447361   -8.58311982884281
F          -8.10596860498197    8.19022039075410   -6.41957437638472
F          -7.16766364401316   10.66501532994450   -7.06043273471394
C          -6.32698073404714    9.24822796402059  -11.56470331512253
C          -6.35995181056751    8.25593462635171  -12.50474315326317
C          -6.00258094670215    8.25411053576200  -13.92229250905934
C          -5.78610665816283    9.39083785787802  -14.67764767070448
C          -5.69617891469455    9.38289063167670  -16.08002981671853
N          -5.62819086462996    9.41789984308990  -17.22626982105891
C          -5.68155544978314   10.68681738944307  -14.14469445464933
N          -5.53754130819927   11.76135931127945  -13.76250358667458
H          -0.92594435137946    2.52926044512783   -5.29346369584874
H          -1.56806863449073   -2.43955975916716   -5.22052761803840
H           1.80869752822637    1.92110893324155   -5.16298425967779
H          -6.56790426745717   -0.20989849321396   -4.87765357405135
H         -11.07662525081496    2.04387105050765   -3.39530513419605
H          -7.73207115696141    6.08856903422525   -4.79806891171388
H          -4.93266534693899    5.14625881367947   -5.62685599522616
H          -6.42778885039181    7.82583272886701   -3.63319482922695
H          -3.97425074729433    5.95257275972597   -9.04615580409475
H          -5.00011197551936    5.72182597220155   -7.64786865823539
H          -1.94771361881117    5.50633241734986   -7.74119399195563
H          -3.10722793581435    4.21999647468834   -7.39313977014754
H          -2.85033347641464    5.52208096173428   -6.23469391091563
H          -2.10377282702568    6.92154569894135   -9.42558313214796
H          -1.56900981277828    8.55332297368999   -9.75648594405661
H          -4.16522891054453    7.26878198191166  -10.75806282384378
H          -2.73795463916557    7.63382698872195  -11.72662615448304
H          -3.72192350011408    8.93705098999382  -11.05921582291423
H          -2.18179112150565   13.03711674782517   -8.18963994445699
H          -2.12128505813334   10.29537587922689  -10.69953403257345
H          -0.29299977830247   12.36424805795525   -9.39446903471518
H           0.87501972067794   12.51410365137959  -11.41582036906580
H           1.42987762024813   12.00963227966170  -13.81017454163230
H           0.62638822996582   10.61093837051327  -15.81826121893147
H          -0.73726187168757    8.99422317954663  -17.34103455651701
H          -2.58330543105442    7.41837149767276  -18.21558742968248
H          -4.59615506851926    6.07476896361766  -17.38691081431345
H          -6.11395744600547    5.33973248757120  -15.74227984907099
H          -7.53877016595100    5.64935958439478  -10.63878587538055
H          -6.36038276650050   10.95564625110931   -9.49573314534234
H          -7.99385622761553    6.43182502959915   -8.30673590890723
H          -5.99802039883045   10.24772095528850  -11.79929171917151
