106
 SCF done       -199.699870938277          0.000970185856
C          -3.38106302382752    4.77974935761375   -0.66281258955100
C          -2.91593169073020    6.03943154412035   -0.91901066921021
C          -1.61010171291312    6.32595995103345   -1.37377971048071
N          -0.56441830183433    6.61945066673949   -1.74319764882531
C          -3.68261045245267    7.21931779130614   -0.80472975098544
N          -4.25938740745503    8.21048846841611   -0.75791226476759
C          -2.64716247395292    3.53930830267816   -0.86239248879337
C          -3.52191986350997    2.44315972910642   -0.65376511438751
C          -3.11703637563572    1.13698967299190   -0.79140818476198
C          -1.78458536288262    0.89921509659241   -1.14209673322955
C          -0.91485892566124    2.00042610372730   -1.33939900559403
C          -1.32449723811523    3.31999177773661   -1.20681524310214
S           0.68830831502127    1.48097725829701   -1.76082675642836
C           0.17713595945683   -0.18364442378034   -1.67031599205917
C          -1.12704818901958   -0.34486918389029   -1.34054140376570
Br          1.41228232246441   -1.54992120426481   -2.01902637210108
C          -4.86005376407566    2.94141427928561   -0.28446003599801
O          -5.85876327444600    2.28563123004498   -0.09966264853845
C          -4.72194580659688    4.42501523371357   -0.20709240681973
C          -5.69461854657851    5.24822213677537    0.23104175069828
C          -6.97740245271399    4.78323922184443    0.75025001160677
C          -7.05251879336283    4.17182305190275    1.96069311065049
S          -8.65496857050804    3.82596746814150    2.47892248839647
C          -9.27700804682435    4.49250971479241    1.00447022013259
C          -8.27316922767825    4.96808843785791    0.15082978880405
C          -8.62510950744491    5.47015422696411   -1.12286841208978
C          -7.50658038584486    5.86517841400244   -2.05133895384070
C          -7.04410821750267    4.66587238895079   -2.88199858593709
C          -9.95587684620435    5.52107168102046   -1.51319476399649
C         -10.31316450198678    6.02024835728219   -2.89006992162054
C         -10.78770705576636    7.47407840282108   -2.84943467401823
C         -10.98187068108778    5.12048440405674   -0.61527450017636
C         -12.42886171097835    5.16172883377184   -0.71705257904860
C         -13.02727162433371    4.66333073104012    0.40866553703284
S         -11.95249372103251    4.12090079526978    1.62248702386743
C         -10.60777421539387    4.59433883314554    0.63320265694126
C         -13.25034847974139    5.63705171747158   -1.80771687414992
C         -14.48223283180650    6.15681845505093   -1.63060240929438
C         -15.39548809869659    6.59461542473047   -2.63807935142016
S         -16.79236812468436    7.47825015445085   -2.09756102508180
C         -17.37528757522108    7.63302345523653   -3.71801564361270
C         -16.51987936292594    7.03517573872584   -4.63006527650069
C         -15.40619552771242    6.43804163300992   -4.02010211322629
C         -14.37731157887643    5.69209305865196   -4.81333626808185
C         -14.88928438627531    5.36403282294596   -6.22475011873940
C         -13.78744074400194    4.86240505275068   -7.01483161536607
N         -12.88733009482592    4.48673137795915   -7.60958198377613
C         -15.49429442708888    6.62758803255217   -6.86948430780934
C         -15.82552242503489    6.37698802516500   -8.25430561935919
N         -16.11116336196240    6.15937521921599   -9.33847617914048
C         -16.76117962109498    7.02908720234377   -6.10345283272821
C         -18.58875743197013    8.33409095549044   -3.95762109171501
N         -19.11407682727825    8.36325634460669   -5.19934643508573
C         -20.14494480225547    9.14543522460288   -5.36902896696392
C         -20.68575580012503    9.88354543526831   -4.29478503876705
N         -20.22625672785903    9.62879908109496   -3.06007780107014
N         -19.19303655077421    8.89206079131545   -2.90287488930416
C         -21.75842101710261   10.82362051717648   -4.46436336279755
C         -21.91788087794078   11.97792110193852   -3.78159703014166
C         -21.05875781729128   12.65611588661811   -2.82547831401218
C         -19.69117458768307   12.65452874893670   -2.81017409844274
C         -18.91491459901821   13.40327057301000   -1.90057511112137
N         -18.24021374531187   13.99453893676932   -1.18511629662181
C         -18.88698961616429   11.98187180888553   -3.75296012683440
N         -18.18153589006705   11.50044466816989   -4.52054236382279
C         -21.91551360816473   13.53157984302062   -2.03630084123837
C         -23.19925399655403   13.58619798048469   -2.63964522554886
C         -23.22934304226545   12.69031248659105   -3.81040530771196
O         -24.12627556818211   12.51877701373164   -4.60073245318791
C         -24.21466683870026   14.36772325615252   -2.14247339679442
C         -23.95520621295104   15.12256906292691   -0.99408610679117
C         -22.67537889515065   15.04928676568408   -0.39098401227583
C         -21.64631376180781   14.26432833207540   -0.89545546487012
S         -22.57701499758293   16.05377968857142    1.02214337050934
C         -24.23014990392742   16.55646165611840    0.78574852771947
C         -24.82812330381081   15.99988897723831   -0.29471851612038
Br        -25.00954755659895   17.76659501058797    1.98649262759496
H          -3.80821699748733    0.32435814145454   -0.63173320368559
H          -0.62521851764523    4.12386895443456   -1.36545444972386
H          -1.60659514972251   -1.30143177137239   -1.24123247231148
H          -5.51789449188118    6.31532134893906    0.30146798743561
H          -6.23209421848694    3.92665974721544    2.60694802803541
H          -6.66414142384848    6.22514102137736   -1.46134770615628
H          -7.80059071301836    6.68537816158995   -2.70490083808218
H          -6.76338326763302    3.84153131179883   -2.23053015929944
H          -6.18551842990238    4.93757188278836   -3.49287341365272
H          -7.83761967377751    4.31567854766412   -3.53781565676035
H         -11.07617107907089    5.37368173206913   -3.32213622892204
H          -9.45568361715534    5.94995816914680   -3.55452978509371
H         -11.65106143301504    7.58808177784523   -2.19820694621234
H         -11.05598752537777    7.81392064656117   -3.84764990762436
H          -9.99336884182421    8.11392961414365   -2.47198774768935
H         -14.08091214993432    4.54856545309443    0.57172049814306
H         -12.84796180754519    5.56028682551095   -2.79901814436299
H         -14.84309419228096    6.31037755536693   -0.62226134458215
H         -14.11983933921479    4.75937803786530   -4.30473395041353
H         -13.46626022133745    6.29586729499491   -4.89767423294082
H         -15.66121412732526    4.58628718889020   -6.17335651616118
H         -14.75705607487530    7.43909211842870   -6.83157593897211
H         -17.57267009860039    6.33073454485665   -6.33301247834974
H         -17.10269819458004    8.01573707904876   -6.42276835669419
H         -20.56330320082917    9.20022377653919   -6.36496382810399
H         -22.53435922983116   10.56447797539369   -5.17598017127658
H         -25.17899322540242   14.39697620931545   -2.62501722531592
H         -20.69024543338877   14.23162340167423   -0.39963421830654
H         -25.84287532528341   16.19845698179563   -0.58765744163699
