114
 SCF done       -216.609160224688          0.000653143304
C          -1.39782578694112    4.06087810517731  -18.10648527986972
C          -0.20561099902988    4.73378949537161  -18.20074235108514
C           0.94598118205317    4.21870224131948  -18.83032102216598
N           1.91051668642121    3.85793054162613  -19.33774797796882
C           0.03859284337443    6.01699337665014  -17.66968233522418
N           0.31281431303113    7.04995161703859  -17.24899125588657
C          -1.65006814647043    2.70298659976720  -18.57314615171451
C          -2.97214681174151    2.33690109134177  -18.21970515543693
C          -3.50431498262453    1.10399361241641  -18.50770108490469
C          -2.68826012996540    0.18230090505993  -19.17156423580536
C          -1.37012620354836    0.55752287755732  -19.52646182075080
C          -0.83460631226843    1.80718499016104  -19.23948164604737
S          -0.53798455407595   -0.72999089107161  -20.34354951835289
C          -1.95023393730403   -1.74236886566499  -20.19535504482824
C          -2.99314158034547   -1.14840100857994  -19.56844406136828
Br         -1.91400771101092   -3.48563129067802  -20.88377628879879
C          -3.62526843461894    3.45847039511529  -17.52348505239278
O          -4.79019712904348    3.53080268047482  -17.20024213806436
C          -2.59612680744492    4.53002987237888  -17.44384833627076
C          -2.84005264376164    5.79698864856454  -16.99281570731353
C          -3.89520459376200    6.16559026930411  -16.12711494346330
S          -4.52485302610961    7.78801007987693  -16.12440005369762
C          -5.60271532172153    7.46201724098037  -14.78720661903647
C          -5.47831554212218    6.13104101157767  -14.39389680295990
C          -4.50764886847067    5.41579007921837  -15.12529792462080
C          -4.08326193937296    4.12234196971959  -14.75963600827477
N          -3.68184320551761    3.11255087114491  -14.39587783666920
C          -6.37276727090660    5.38248291713874  -13.45499876526597
F          -7.52184172017870    6.02268801802872  -13.18553145006453
F          -6.73818737871928    4.19855430421359  -13.96930284940210
F          -5.79664632499454    5.10479863153922  -12.26990923685108
C          -6.39058901048902    8.52966284484677  -14.29789386923075
C          -6.70944558282428    8.79696395993687  -12.99048443631897
C          -7.55600850761722    9.84541219149473  -12.53904546381896
C          -7.66510904012092    9.93170619031108  -11.18553944837453
C          -6.89627298989989    8.97219436422272  -10.48948350903290
S          -6.01565993681625    7.96560429795114  -11.61824893013768
C          -6.80256806715052    8.74427512976495   -9.13172451735990
C          -7.47693430655656    9.39839057316535   -8.07053310285401
C          -7.19388580336518    8.88549274926311   -6.84598962911943
C          -6.27075125213526    7.79839045761809   -6.85435149687590
S          -5.76703586366487    7.48574293593763   -8.51340169420231
C          -5.90848107160550    7.06277429463355   -5.76485816789887
C          -5.02097091472545    5.93920841756955   -5.70471476236259
C          -5.15663017718853    5.03500490496940   -4.63228975826261
C          -4.37729062005121    3.90781021337528   -4.59047319951212
C          -3.41132901970250    3.67049651497300   -5.58825761322816
C          -3.22748685986367    4.58209125478581   -6.61955763500098
C          -4.03252271123386    5.69849581399299   -6.67353923109551
C          -2.76006638976133    2.41256493863096   -5.31113244779707
C          -3.33424918703496    1.85968156952453   -4.15115830684522
C          -4.38668470677355    2.78161970970468   -3.58354152340297
C          -3.98788890415527    3.27172534032167   -2.17789926039229
C          -2.64043875694878    3.98302106019519   -2.15706402670353
C          -5.76154470711794    2.09192508168627   -3.51402522744901
C          -6.22669035632360    1.56037201157499   -4.86451845767757
C          -2.92367371549792    0.63982615682862   -3.67819793388758
C          -1.90691879504978   -0.05331666264639   -4.35830475426836
C          -1.30777597007983    0.53374868080490   -5.48464127770399
C          -1.73510505682646    1.74905769068639   -5.97521082997491
C          -1.46359874633619   -1.34681947273628   -3.91529899460484
C          -2.20676574233314   -2.19787219395046   -3.16558847602760
C          -1.70735276778620   -3.43584061839439   -2.70800336838943
C          -2.32002519730743   -4.36222443215127   -1.91568569207561
C          -3.57226007712619   -4.37995096532216   -1.19029107350016
C          -4.27483522944504   -3.32004273183510   -0.67472984637598
C          -5.45789679272797   -3.45711833639543    0.08395651181212
N          -6.42940442597696   -3.48914594240599    0.69485781575388
C          -3.91378558385519   -1.95945338984902   -0.72878596684094
N          -3.70471589112066   -0.82992259271560   -0.69035039512576
C          -3.88842235357309   -5.78198463883715   -0.91617050444886
C          -2.77016691501187   -6.58215665795875   -1.25899174139724
C          -1.71894372229429   -5.72007523145678   -1.83127208013020
O          -0.61259639224327   -6.04424549486789   -2.19957161078972
C          -2.75273857486338   -7.94482106004959   -1.08846105248493
C          -3.89896878679875   -8.55152944151039   -0.56446315677766
C          -5.01742846906976   -7.74734229121459   -0.24070851222844
C          -5.03192598355184   -6.36785621729907   -0.40674083056495
S          -6.33310878958787   -8.70075342738687    0.37501068793993
C          -5.37436588938345  -10.14621443952341    0.19585027418477
C          -4.13351659326490   -9.92887776198053   -0.30088480003501
Br         -6.10374226392222  -11.80524635763808    0.67850733236000
H          -4.51375935830790    0.85699756473934  -18.21940092077507
H           0.17385492554853    2.04578270364939  -19.53354984334645
H          -3.93908640118928   -1.62663945467611  -19.39118848414271
H          -2.19692436796376    6.60671796464307  -17.31412700039758
H          -6.68061059599361    9.27227249036843  -15.02991691659553
H          -8.06996428342429   10.48379899457447  -13.23517960996001
H          -8.27462638554070   10.65309374909306  -10.67135635295081
H          -8.15941912285911   10.21007797372587   -8.24751225756737
H          -7.62156838014310    9.24127727684330   -5.92503496956310
H          -6.40284788128097    7.32321513761397   -4.83611549028254
H          -5.90180200292318    5.22284050991045   -3.87256214319134
H          -2.47175386221200    4.41909760675245   -7.37240153523299
H          -3.87387776444603    6.41790461406414   -7.46037642876520
H          -3.95252433038612    2.41019345815747   -1.50913927149736
H          -4.76193823013914    3.95003600054024   -1.81290969636901
H          -1.84852181238189    3.31677979614152   -2.49175787913788
H          -2.40846530621198    4.30929923363221   -1.14617738217616
H          -2.65217206103017    4.85615831917294   -2.80652130071465
H          -6.49366478264953    2.80766794916123   -3.13469631787975
H          -5.69955298636135    1.26896667747250   -2.79944472424941
H          -6.31119214515062    2.36708126628419   -5.58964082083551
H          -7.20002182410521    1.08602664921105   -4.76375768162702
H          -5.52489780261567    0.82504730061843   -5.25215536365563
H          -3.34129043054505    0.23195699952382   -2.77031052071806
H          -0.51599998794040   -0.00014031917749   -5.99008468190707
H          -1.28079977460259    2.17691992724079   -6.85587201182938
H          -0.46916409587187   -1.65108257103505   -4.21921339670960
H          -3.22634480096075   -1.93858853374278   -2.93065409333973
H          -0.72740483960192   -3.73335924269903   -3.06927755051820
H          -1.88323491328527   -8.52527697808347   -1.35404815759319
H          -5.91345669121640   -5.80293732829364   -0.15390812893508
H          -3.41243189845128  -10.70619511224662   -0.47618412306283
