117
 SCF done       -202.886200348186          0.000553810454
C          -3.32180180162923   -1.54639784836927   -2.40022625581750
C          -3.23807281983247   -1.70087737504873   -3.75850443995609
C          -2.89248497106337   -2.91124578001882   -4.39629462143519
N          -2.62377623737907   -3.86807708740629   -4.97051774369714
C          -3.45137881089960   -0.67938865321145   -4.70898794510924
N          -3.59173460525224    0.09583222662574   -5.54454711243117
C          -3.01873414559611   -2.56837075461571   -1.40885897715867
C          -3.08164998279233   -1.98404605750375   -0.12069390934721
C          -2.84185551736569   -2.69676186447551    1.02926247369418
C          -2.52212449864522   -4.05203367634128    0.90192312610886
C          -2.46412407435996   -4.62918116989550   -0.38997127236077
C          -2.70809047417664   -3.90886732009019   -1.55195937256793
S          -2.05814198192335   -6.31704294701924   -0.31781239296416
C          -1.97070880336092   -6.22567911102643    1.42138840521897
C          -2.23235819529226   -4.99578908213734    1.92469551694710
Br         -1.54445502143449   -7.76235966165753    2.40793696122717
C          -3.43728184979383   -0.55542178140853   -0.23575805356720
O          -3.59099273268248    0.21513949834262    0.68501707595337
C          -3.64241354836122   -0.31536311871569   -1.69088006003274
C          -4.23445729342411    0.77392078727605   -2.24683330261043
C          -4.50527633082192    2.04959429640772   -1.64066067435237
C          -5.64415544311914    2.75505052303773   -2.07046932226930
C          -5.93312390412611    3.97385489297464   -1.51396319772915
C          -5.07540246949012    4.53926874842649   -0.55056017313856
C          -3.92286282591350    3.87273684820012   -0.15627009752880
C          -3.64818053964242    2.63402275253547   -0.69752341970299
C          -5.61190969992037    5.82176819745170   -0.15649360291663
C          -6.80091092465870    6.05034741788459   -0.87400542830082
C          -7.10363181919681    4.88765973488175   -1.78935161056968
C          -7.14309182298438    5.32655464337968   -3.26509433553835
C          -5.85405777209886    6.00207280638130   -3.71724571658341
C          -8.43694115838536    4.21270346604338   -1.41415118002217
C          -8.47826829895178    3.74757550278304    0.03662174367538
C          -7.51025831573236    7.20980364929698   -0.69177704264570
C          -7.04729227650690    8.18035049935854    0.21591225804091
C          -5.86210107934649    7.93141443674068    0.92816373270986
C          -5.14646197618825    6.76703309141808    0.74968184930376
C          -7.81259923304879    9.38911840107988    0.35810151684778
C          -7.50262098463374   10.44714962964097    1.14293784144903
C          -8.26531221343082   11.64809261561971    1.23868239145753
C          -7.79986787712929   12.70196258388844    2.06614891737810
C          -8.49637753923879   13.96169281675598    2.19147930725022
N          -7.94943929450208   14.95744759845391    2.91738152540587
C          -6.82116548577451   14.75028736470484    3.53968691240692
C          -6.16311240023666   13.47435170520415    3.47342877224326
N          -6.65582575097525   12.50735361539398    2.74192705352041
C          -4.96444374878870   13.25520904875138    4.19509187918056
N          -3.99553582373581   13.11012891945618    4.78933493045455
C          -6.25068211734854   15.80708578184680    4.29365488134439
N          -5.77733619994057   16.64341253188521    4.91698255802250
C          -9.70326977466613   14.20816879453469    1.51950469973885
C         -10.15774840022008   13.17446567712234    0.68333185958652
C          -9.46757725047713   11.91196872894463    0.54525322684658
N         -10.11300482781258   11.09851773555535   -0.29599791342751
S         -11.42683505899353   11.83445974238170   -0.84639250919367
N         -11.26938709313940   13.22013109563564   -0.06039377550039
C         -10.43029504700659   15.46061337649114    1.55016264270750
C         -10.69630225246332   16.25091532881483    2.59540605816034
C         -10.38928738377359   15.95730004842595    4.02510918921083
C         -11.47883072171927   17.52159567309619    2.36700677226595
N         -12.87761014760908   17.29267433073672    2.64831355300356
C         -13.72021023167010   18.21782597955717    3.14036624996581
C         -15.06673673223401   18.05247105001737    3.21504876789016
C         -15.97426371132711   19.01352593188657    3.71738632135616
C         -17.35055467486218   18.90207491113622    3.73111068936357
C         -17.92100510527639   20.08375501843551    4.26050032798829
C         -16.78085716408492   20.96288869089375    4.60850613025372
C         -15.63511092334591   20.31483253454691    4.27973203936856
C         -16.83318727736282   22.23762869957485    5.17959619741389
N         -16.82079913563825   23.28688911313649    5.64932896040815
C         -19.25441271703654   20.39491265955876    4.40543767879639
C         -19.81983906053610   21.61192099740323    4.89078299809357
C         -21.18971492905593   21.52725413564246    4.84557759231435
C         -21.53561500635635   20.21913173409161    4.32555462970816
C         -20.39156928109000   19.52931321232480    4.05672856561822
C         -20.33922578172662   18.23151856201670    3.54539186755123
N         -20.33646299392286   17.16143071891152    3.12300358483305
C         -22.17239929504718   22.50927153674583    5.21838241303786
C         -21.89763715479988   23.72777627523479    5.68413334787497
H          -2.89804714950480   -2.22198478154309    1.99629072571461
H          -2.65826689788256   -4.39463513276722   -2.51204956905046
H          -2.22271302348701   -4.76218122358233    2.97363327265483
H          -4.59343753459795    0.67940299105724   -3.26568213668148
H          -6.29160619923782    2.31369763478977   -2.81463228955039
H          -3.24904431803070    4.31456212186427    0.56150841787888
H          -2.74320052510987    2.12124283264120   -0.41772924630025
H          -7.98034727873897    6.01396711887172   -3.40208747771001
H          -7.32816625143475    4.44796048970136   -3.88616353566516
H          -5.65645870669385    6.89251587782366   -3.12431063897811
H          -5.93337854933314    6.29475314656090   -4.76140550012416
H          -5.00805243571362    5.32626344698349   -3.61422360099136
H          -8.59196726357286    3.35667044280738   -2.07404853392441
H          -9.24848917063779    4.92154615524950   -1.59094761286127
H          -7.68926201431010    3.02507406805033    0.23351478189286
H          -9.43526750540620    3.27738345949931    0.25024137178321
H          -8.34964644976889    4.58828811037822    0.71483137750522
H          -8.42302889465952    7.39438471661043   -1.23996341087395
H          -5.50094511374063    8.66555462093500    1.63079036191250
H          -4.23735601107479    6.59366549858038    1.30529021074490
H          -8.71313262159766    9.44695827560133   -0.23834190503155
H          -6.61234655007281   10.44453020188686    1.75476837176434
H         -10.83177972578847   15.73470391699614    0.58108337115808
H         -10.17917831335431   14.90354727205407    4.18143216297281
H         -11.23540648755282   16.24662531943932    4.64750858213945
H          -9.52054624288314   16.53022400640508    4.34832861534300
H         -11.35152042736632   17.85979211854998    1.32920010786029
H         -11.11710312632550   18.30856301766282    3.03354769922582
H         -13.27953114857986   16.45944201282224    2.24208885701469
H         -13.24752451307953   19.12189389449760    3.49718137759468
H         -15.50093097526718   17.13415376880627    2.84143736719660
H         -17.91014093154149   18.05801988996726    3.37936341187154
H         -14.64047511183707   20.69740310506133    4.41682932837623
H         -19.24452021367190   22.45100752932979    5.22716614108323
H         -22.54007973213965   19.86386953655417    4.18023523965474
H         -23.20403491267067   22.20273767595640    5.09369686704864
H         -20.88623859614621   24.07106910247502    5.81753442852513
H         -22.67922725274938   24.42135212525163    5.94180047386324
