98
 SCF done       -193.498831770837          0.000215307681
C          -6.28773822720994    4.27278038253745    0.89442919942650
C          -5.00135317458150    4.72722260197679    0.96404422812946
C          -4.38041376616366    5.16299505985936    2.15539845793595
N          -3.82687869650535    5.52666307798025    3.09195559493512
C          -4.10904110338352    4.78165209005551   -0.12897135093539
N          -3.33222181497733    4.83308797096515   -0.97204921943117
C          -7.21082000112306    4.12942731782013    2.00954129821517
C          -8.37657572363038    3.45501391550844    1.56185077826483
C          -9.43378687684458    3.16208977566649    2.39143148756921
C          -9.34087982216615    3.56492428108142    3.72627620599494
C          -8.17624637298695    4.24364971437891    4.16615325115327
C          -7.10565090388823    4.53152262457339    3.32957982737812
S          -8.27623020979417    4.65208390228479    5.85044249640329
C          -9.85616604791356    3.91692640081888    5.94088969802261
C         -10.28918822319572    3.39145570172888    4.76977355672793
Br        -10.77813758614660    3.91383603651288    7.57147925570035
C          -8.24634412552262    3.15306014951486    0.13353775681335
O          -9.01259421635148    2.49762862427187   -0.54348574698654
C          -6.97216555658522    3.78897834916119   -0.30544140518259
C          -6.59743295020828    3.94952785327724   -1.58903600700279
C          -7.42831930539301    3.54178074704500   -2.74262871729767
S          -7.63354011207039    5.00852894196424   -3.85168716202274
C          -6.89337705406354    4.16912945897871   -5.29448676448215
C          -7.11085395131423    2.67591457803676   -5.08191490914267
C          -6.80372974558778    2.43185181060332   -3.58918944882266
C          -6.17110441400750    1.76442664347360   -5.90709779346062
O          -6.09383978092472    0.58445888011248   -5.62734414179773
N          -5.47826046758808    2.34544208872952   -6.88750517147048
N          -8.45467754181748    2.28704045260218   -5.52626238998559
N          -9.53234857764359    2.70058633361617   -4.75420832365342
C         -10.11701818637192    2.12599105166222   -3.67985634509662
S         -11.11431923949137    3.18268577300346   -2.72138815786637
C         -11.48047355285529    1.86635491027980   -1.64571676175081
N         -12.17353518799120    2.17184706806976   -0.47924913215227
O         -12.36634075932050    1.27823227164877    0.32845444192260
O         -12.52334802015094    3.33404228548228   -0.33355129762866
C         -10.91705863765255    0.68748327354641   -2.03231587853551
C         -10.13760594061543    0.79006250679278   -3.20805629186655
C          -9.48996095130216   -0.31469576685180   -3.82879803108472
C          -9.64302843039338   -1.62885906536851   -3.48830448735506
C          -9.07180116976699   -2.72312510269395   -4.16556028304267
C          -8.41895723494070   -2.75048116845642   -5.37867547243140
C          -7.84708427111479   -3.89668425741534   -5.98625077764373
C          -7.24979193108305   -3.66489894804941   -7.19198403406884
C          -7.31875488841256   -2.31825397958798   -7.60231928807971
S          -8.18525130406212   -1.37443834692490   -6.43516907087683
C          -6.77121719629297   -1.68096249971930   -8.70834834674732
C          -5.99469985920559   -2.17866544490318   -9.76570640269036
C          -5.55514058426236   -1.20644997290971  -10.62890190512487
C          -5.95278268131878    0.09613752682722  -10.27683538700649
S          -6.96489595346014    0.04892819827794   -8.85870982497504
C          -5.59459443451254    1.30433367331445  -10.87069683170428
C          -5.93698861722083    2.50630179018491  -10.28505152747262
C          -5.64080989817036    3.81888573788360  -10.63005027765257
C          -5.22032371461067    4.43475280795661  -11.85484246858004
C          -5.32405071253677    3.92335465519000  -13.12895186589615
C          -4.88579722046645    4.59462426309040  -14.28609882175220
N          -4.52732209012013    5.08093299262748  -15.26340157305793
C          -5.96654483056940    2.71526535636752  -13.45806627173884
N          -6.51791175474235    1.76792048089866  -13.80246678426527
C          -4.83297443649343    5.81259915228377  -11.54112795541668
C          -5.14388113128812    6.06875434173324  -10.18170487317033
C          -5.66465843452906    4.83295766583360   -9.57643500859802
O          -5.98524644569833    4.67437004611544   -8.40024279440506
C          -4.94015656192351    7.29250140681360   -9.59344750720580
C          -4.39672513447834    8.31300806276246  -10.38236904156115
C          -4.07810017078689    8.04422379601083  -11.73283487761957
C          -4.28976324387905    6.80502658115691  -12.32992722936478
S          -3.41011757731266    9.43996108335361  -12.52221354457636
C          -3.57090722756422   10.35574109055012  -11.04704493484615
C          -4.09502197503557    9.65334212866639  -10.01515659900546
Br         -3.03056079607539   12.15215163250696  -11.00880877249694
H         -10.30616660513488    2.64343929343431    2.02597783645460
H          -6.24345430158382    5.05316260760880    3.71055662378657
H         -11.23810469886015    2.90356123059499    4.64137511053382
H          -5.67624269163789    4.46193643428774   -1.83221266902772
H          -8.42106786713737    3.26462890408549   -2.39698105018167
H          -5.83204615722887    4.41377242675954   -5.31444682062676
H          -7.37189190486740    4.54443226531769   -6.19585157616543
H          -5.71804283213032    2.44337230599773   -3.46655332068235
H          -7.16590731013326    1.45574987366529   -3.26667154451271
H          -5.69664875703611    3.26204165511132   -7.27407849079626
H          -4.88782773260896    1.74128583914533   -7.43928174171879
H          -8.49916540424425    1.29625463984579   -5.73714389796794
H          -9.69316134112623    3.69956361705231   -4.84269573777100
H         -11.03648827787529   -0.21146223294519   -1.45714257290575
H          -8.80967191214946   -0.09210583910902   -4.63174662969605
H         -10.24898143477157   -1.88145830443564   -2.63011660032289
H          -9.18183795314477   -3.68801600349155   -3.68561771150253
H          -7.88364483719128   -4.85930281946496   -5.50683444391627
H          -6.76013669704085   -4.41770557070295   -7.78306608128043
H          -5.76512088092039   -3.22460240987657   -9.86539924639660
H          -4.94197643584849   -1.39408388132807  -11.49208966994367
H          -4.98707047421317    1.25931805243419  -11.76047397395603
H          -6.44308859908234    2.42942250751826   -9.32530288627997
H          -5.19447782074771    7.46264330583535   -8.55892826627726
H          -4.02748631310124    6.65037315987640  -13.36312157304637
H          -4.26277202222427   10.06141411934448   -9.03516531185823
