86
 SCF done       -149.432821598987          0.000609640436
C          -5.14883896325671    2.21358915762433   -2.15647687929236
C          -6.00293958271192    3.07158087652154   -2.82015384043549
C          -5.64733929300752    3.82814496731570   -3.95190354587818
N          -5.41954362153302    4.48737731692308   -4.86534933773913
C          -7.34978634774942    3.27438939896946   -2.49147373741676
N          -8.47274523894820    3.46164816304675   -2.31914274375825
C          -3.80659397521000    1.86207229345854   -2.60381339661432
C          -3.28568013841964    0.88129738054394   -1.72741702365487
C          -2.03950347892780    0.33110103774664   -1.88722661949862
C          -1.26945101048900    0.76429312607741   -2.97381904712405
C          -1.79772535280759    1.74513838080870   -3.84393909208827
C          -3.05875678619036    2.30599717388393   -3.67799530666792
S          -0.67849211342720    2.14177703789443   -5.11408147091767
C           0.46563617509374    0.99578675942136   -4.46794250918298
C           0.03525770715872    0.35025120069941   -3.35846404604830
Br          2.12117163886547    0.76025996009432   -5.31913387644926
C          -4.26719564724731    0.61445914347745   -0.65036302431904
O          -4.05008399607952   -0.03953021810736    0.34731732903270
C          -5.44979328414953    1.44483878895340   -0.97807354857495
C          -6.57435421827674    1.61237718032921   -0.19379246627626
C          -7.01753799516412    0.73769620534840    0.81789293706955
C          -7.88542947960180    1.12277747095366    1.83095798991999
O          -8.06313264978052    0.35890404683299    2.95328005752755
C          -7.37996892712095   -0.82240060190428    3.00262104450353
C          -6.59946190207400   -1.27159652159373    1.89964208357007
C          -6.01494185669725   -2.47263028133780    2.12565269686113
S          -6.41423468668482   -3.07274209188036    3.69349632797987
C          -7.37622072888634   -1.68895742097974    4.04667400193222
O          -6.49439758737281   -0.53653120996862    0.76492179088146
C          -8.64336372885388    2.33653273130733    1.93888475244950
C          -9.28710455767161    3.01407455114733    0.96272553253663
C         -10.07608806834999    4.17046762302479    1.25764139439819
C         -10.93007702564424    4.76847417501824    0.40755939046471
C         -11.20505692340130    4.28495799445909   -0.97677168527260
C         -11.72654259632318    5.98981691761725    0.80911663870895
N         -11.56185360959399    6.42539190779906    2.16700230251815
C         -10.63518332356640    7.33133616040511    2.55046880083658
C         -10.27729906620485    7.57097484102997    3.83939369106626
C          -9.37922277802046    8.58824218565564    4.20926659070717
C          -8.97954048363350    8.85449531829411    5.49222493848472
C          -8.11439431407196    9.88877258803090    5.92163162905857
C          -7.90438999598849    9.92548130209231    7.26669753585763
C          -8.58072652402240    8.91304178290388    7.98279112865492
S          -9.50743050043602    7.91356677076029    6.88706000233392
C          -8.55426231695735    8.68153006350811    9.34560089301746
C          -7.88593912083624    9.43069361592010   10.33603565480971
C          -8.04895132354719    8.94804049877775   11.60073654376199
C          -8.84654595276415    7.78357472407941   11.68352183590217
S          -9.39980198937505    7.33230677271942   10.07778929028759
C          -9.15949651604562    7.07259055557904   12.81828163067232
C          -9.92148003876040    5.89758932574958   12.83667860209754
C         -10.21153740460134    5.20333137730895   13.97775068416991
C         -10.94965424273136    3.99504608943501   14.06305070187962
C         -11.46801464728828    3.28615413688118   13.02895019737505
C         -12.19098775712733    2.06448686465311   13.20266538606152
C         -12.69627855911313    1.34924797067186   12.19374898686945
H          -1.66874776225502   -0.41333260504899   -1.20021511551708
H          -3.41338776203870    3.05615196206861   -4.36459973188991
H           0.61247673274177   -0.38718720244341   -2.83115634728295
H          -7.15564742367274    2.50777384167184   -0.33677058715199
H          -5.37759595943798   -3.02746561746534    1.47075871899331
H          -7.87786770000469   -1.59449745798464    4.98687676600240
H          -8.81827868689435    2.62962532153860    2.96784907254592
H          -9.25310942008207    2.68028528742904   -0.06310527328046
H          -9.96128638312006    4.56645945598644    2.25878343807574
H         -10.27823583059764    4.15504804638189   -1.53218450324950
H         -11.84056555946746    4.98395246801399   -1.51392369994640
H         -11.70457595025501    3.31734776547598   -0.95001225730637
H         -12.78956466036266    5.77829547937232    0.63715617522651
H         -11.44743770126909    6.81675600458945    0.14650393795509
H         -11.92533419608785    5.81300866103893    2.88304296474897
H         -10.20502522969160    7.91519344872909    1.74793558990963
H         -10.70154513922856    6.96794032176614    4.63153565399203
H          -8.97475436268919    9.21649358628907    3.42614234564412
H          -7.67842770961908   10.57777478467631    5.21940191280811
H          -7.27853345401111   10.64654878295439    7.76110971386395
H          -7.30810452901185   10.30473318079012   10.09359541356618
H          -7.61467541028473    9.39038704896075   12.48019861230538
H          -8.77329745108693    7.45040299620635   13.75659025000697
H         -10.28208666510404    5.53908188240321   11.88193301594955
H          -9.84270137287794    5.60566461134806   14.91348356323562
H         -11.09828429935932    3.60340713577650   15.06262443779565
H         -11.33981237971444    3.63026484123656   12.01246204648375
H         -12.32020575241303    1.72032479078198   14.22157376364139
H         -12.58302599185761    1.66498920726851   11.16966172399723
H         -13.23431528510362    0.43196440401458   12.35787060167169
