88
 SCF done       -171.284654628051          0.000510613430
C         -17.17398165925469   -2.54640876169940   -4.94047910756150
C         -17.28359471073714   -3.72024354627681   -4.21436232049380
C         -18.10490833761912   -4.79374879830901   -4.58686981972983
N         -18.70592712290914   -5.73336334164938   -4.87138878045391
C         -16.59133571987045   -4.02819033900140   -3.02902450269539
N         -16.08423784436941   -4.36393286427093   -2.05276028620342
C         -17.94847449028105   -2.24326878857902   -6.14551215478966
C         -17.51649889031415   -0.99432064623425   -6.64937239285624
C         -18.03095687024959   -0.43739964470242   -7.79111698193323
C         -19.02394368703809   -1.15105398755583   -8.47510502812582
C         -19.45344794595513   -2.39277715697268   -7.96025070231769
C         -18.93417854026208   -2.95441413947903   -6.79806115947169
S         -20.68138685817368   -3.10953536679567   -8.96040711592186
C         -20.60023917040696   -1.74529144181451  -10.04263053416507
C         -19.70207592988050   -0.80181838259288   -9.67570087802484
Br        -21.70926840004321   -1.69570520024991  -11.55633063349535
C         -16.44726724485585   -0.46573805512761   -5.77046000809514
O         -15.84794503752074    0.58288185622312   -5.93520914192869
C         -16.26610501417695   -1.46930073921708   -4.71701653312472
C         -15.30803344027861   -1.38918661550531   -3.70342928984823
C         -14.37101061252194   -0.38985946536481   -3.58824441820078
C         -13.38997001335288   -0.36076520097838   -2.59442899748327
C         -12.40175836453452    0.61945518785298   -2.44050292933342
C         -11.56926384375081    0.40444987939518   -1.36756769816849
C         -11.87687946217825   -0.75673413226552   -0.65122441038552
S         -13.23928258163093   -1.57861028874890   -1.35651690229453
C         -11.23014118157541   -1.23779668625096    0.49654345913441
C         -10.22239820097522   -0.60353583244030    1.22859919776836
C          -9.81966924985440   -1.31332101376032    2.33566231483088
C         -10.48617006191152   -2.53288383612462    2.49951845113361
S         -11.64601371151065   -2.76757959204800    1.21557608731926
C         -10.27587585353333   -3.43082841072652    3.54794949093388
C         -10.84867715978709   -4.66520838077703    3.73083500168351
S         -11.95711763510619   -5.45299303328836    2.60549893595099
C         -12.11833431996450   -6.91576859466160    3.58243487796466
C         -11.34373583274112   -6.76450842522366    4.75865796864064
C         -10.65139724298647   -5.54222044834275    4.82234220066891
N          -9.95536049170658   -5.55568613858672    5.97878223979926
N         -10.15575061446794   -6.69763474175054    6.65307378755079
C         -10.97975770860225   -7.43693487992922    5.94409163579570
C         -12.86921433016348   -8.00202886228821    3.20147803913415
C         -13.53790104747662   -8.11363852355316    1.98410101513195
C         -14.26693349624396   -9.21790195846975    1.61458401076199
C         -14.89018740270398   -9.37466190191359    0.37353827154574
C         -15.65297405532101  -10.47141491933559   -0.04814650304014
C         -16.12544669133817  -10.35942210626653   -1.33404002740667
C         -15.74160319445590   -9.17043438996726   -1.96637963149686
S         -14.78096502783226   -8.18457870681445   -0.89781443096575
C         -16.03491874517276   -8.75074659684307   -3.26614290004236
C         -16.82432639884995   -9.40221313409248   -4.22841179524327
C         -16.93027382252964   -8.71037810375742   -5.40334263083453
C         -16.22659905059703   -7.48738652874195   -5.41293772334632
S         -15.41080557169221   -7.25032204683152   -3.88626713687691
C         -16.23962269800806   -6.57288048039758   -6.44696947848121
C         -15.58053547775149   -5.34223415230798   -6.49900102205568
S         -15.91370979464621   -4.23128109161398   -7.83406304893168
C         -14.82549618838463   -2.98132307550945   -7.27175281974069
C         -14.24528145042400   -3.44127380635068   -6.11211456879784
C         -14.65435810363101   -4.70928248597882   -5.68103546843157
O         -13.94348734332118   -5.00773949839369   -4.55192018594071
C         -13.13613273812278   -3.94858258823590   -4.29351613908604
O         -12.37563615337339   -3.87357292283289   -3.38823486268740
O         -13.30683101222527   -2.97831030095841   -5.23596680147192
C         -14.63562927339095   -1.75698470648650   -7.98598814387284
C         -13.81379561284979   -0.79073177981877   -7.57221885681217
H         -17.67805669358506    0.51634519067301   -8.15096563323251
H         -19.29809098938405   -3.90555956076818   -6.44832386528612
H         -19.52384618598048    0.10377819920155  -10.22648272356921
H         -15.28243558276178   -2.18079513173051   -2.96364437243442
H         -14.37292139979879    0.41743365930258   -4.30651417797890
H         -12.32305909942093    1.45512309881307   -3.11291470493479
H         -10.75266959236705    1.05083856737326   -1.10094669727530
H          -9.82138595368025    0.35413197921024    0.95140279733006
H          -9.06201232939687   -0.98038429022600    3.02316749058212
H          -9.57179539956453   -3.10840694937018    4.30608677598466
H          -9.34811187134603   -4.85146575740397    6.36419266308207
H         -11.28029038929773   -8.40224026486589    6.29678868315472
H         -12.91504586091659   -8.83071620825766    3.89680498581032
H         -13.46174587951608   -7.28773015729720    1.28726543997560
H         -14.36973895575254  -10.03786620028280    2.31434194048582
H         -15.84002586867655  -11.31505844188191    0.59267734801596
H         -16.72619523798721  -11.10467365351214   -1.82300784012152
H         -17.30202422728749  -10.34615152649929   -4.03826095107345
H         -17.50352172944868   -9.03459861251620   -6.25293684241556
H         -16.85614298615141   -6.81250989271595   -7.30198324133902
H         -15.21354266605496   -1.65563718573090   -8.89376117628414
H         -13.24628895883859   -0.88954698711348   -6.66300022744483
H         -13.70276640930794    0.12357478505561   -8.12529575455796
