85
 SCF done       -172.984102879293          0.000572085411
C         -17.89806034767670   -5.70858785215752    6.59484366346995
C         -17.20922901678977   -6.55258175967331    5.75042158841915
C         -17.41543498346602   -7.94395403016205    5.68145762324670
N         -17.52514858921101   -9.08246103826594    5.56829891444556
C         -16.20880665037680   -6.18398224519412    4.83038362324343
N         -15.38352239732781   -5.99977403988212    4.05041613882719
C         -18.92980461864436   -6.13040202451150    7.54224712232740
C         -19.41432394222421   -4.98718031229683    8.22304403210232
C         -20.39006219604325   -5.05494814049003    9.18541847992841
C         -20.91575403111725   -6.31488937016200    9.49456601590092
C         -20.42644016872447   -7.45060522422528    8.81029571391258
C         -19.43819067714844   -7.38094687034298    7.83454472529867
S         -21.21066065978436   -8.90658612584517    9.34685892983146
C         -22.17097200523258   -7.97960772974053   10.46882034345643
C         -21.92017325727371   -6.64967470969579   10.44413071812578
Br        -23.41511518018348   -8.85601860418711   11.56665129595349
C         -18.70167765443612   -3.78877713748085    7.72799408410425
O         -18.87798952814810   -2.64359376234883    8.09747060480682
C         -17.75317452298248   -4.28359944112170    6.71528715726172
C         -16.86414790702546   -3.48850333872187    6.01668171535132
C         -16.72794030909189   -2.11271981398531    6.14455298506853
C         -15.78280825577441   -1.40521120238346    5.41885392948965
C         -15.51819064953696   -0.02001354004927    5.44775973002304
C         -14.49944587880616    0.37303339744729    4.62131155230943
C         -13.91841664908585   -0.68748654609768    3.90450071781218
S         -14.70180689194565   -2.19863401365268    4.29950157609330
C         -12.86898894183988   -0.69506336140469    2.99515608215941
C         -12.05751064406530    0.35256895882705    2.51800000633927
C         -11.10274931007296   -0.05772212810496    1.63004383407507
C         -11.11728749245965   -1.44594814887195    1.36207357578726
S         -12.39327332047634   -2.21286372788152    2.28085869668801
C         -10.28255719625498   -2.14934916998428    0.52169670580110
C         -10.33831911490707   -3.52215030992839    0.27726193503208
S         -11.51561907543148   -4.61897080819492    0.99903971129072
C         -10.90695750785283   -6.03416373117139    0.17910699900883
C          -9.81820193218129   -5.66884408525352   -0.62415743109307
C          -9.52220127305462   -4.28394477172713   -0.55630899250289
O          -8.47610815483020   -3.97669490766318   -1.34115791082580
C          -8.09647339653431   -5.15345549300360   -1.91302777489378
N          -6.99906872568032   -5.13193657680536   -2.80252601223845
O          -6.68331749555405   -6.19798708875845   -3.29797740749118
O          -6.45559881622887   -4.06767960298638   -3.00923673244777
C          -8.87034142308067   -6.21692619829942   -1.51985140119099
C         -11.51319017608342   -7.28363530483602    0.36838064732472
S         -10.92235519867257   -8.71210188714451   -0.47706220582783
C         -12.14958076202954   -9.67218078799636    0.25794280829114
C         -12.96115050956407   -8.90649739468771    1.11544188007010
C         -12.60467331593008   -7.56713363326800    1.17876792839248
S         -14.21958903032093   -9.84477558928056    1.86976961783151
C         -13.65792808556298  -11.26178479818562    1.02598422757766
C         -14.08809217227844  -12.58757819961125    0.98866352628638
C         -13.31420708785964  -13.36238567861010    0.14806239069705
S         -12.02821945292782  -12.43555492860534   -0.60517996139954
C         -12.54525378737396  -11.00687006705476    0.20928690146532
C         -13.41890976968387  -14.74531292538678   -0.17774726782073
C         -14.39628250983868  -15.56751434772050    0.25041435507536
C         -14.49922706076110  -16.96226881514619   -0.10113791630713
C         -15.71315495041770  -17.57069260662999   -0.31890770582194
S         -17.33297754107660  -16.89920160944951   -0.25076271246449
S         -15.56230031007050  -19.21865725810076   -0.83685280292375
C         -13.82655467229691  -19.09695420767988   -0.74030062552050
O         -13.03121217417398  -20.14918714928163   -1.01073948841617
C         -13.39993367243875  -17.86513294122439   -0.32943043880025
C         -11.98179838338909  -17.63972767087577   -0.07461341811414
C         -11.47827368729306  -16.90036263932674    0.90347093401995
H         -20.73739940293122   -4.16509642037340    9.68667538824141
H         -19.09902404250731   -8.27744482929747    7.34325445775113
H         -22.42084191793289   -5.93244747663820   11.06864835239840
H         -16.20434930582934   -3.97597440142526    5.30826761530106
H         -17.36566637574218   -1.57498721327906    6.83042462885313
H         -16.08230313407297    0.64548843968708    6.07668602057263
H         -14.16031746992504    1.38826118098097    4.51657848653743
H         -12.19165092577911    1.37039551558640    2.83734022635285
H         -10.38940821403421    0.59629755069128    1.16048633983055
H          -9.51016382565853   -1.60460601990887   -0.00481086179815
H          -8.75488262556807   -7.23178265806283   -1.83991808535505
H         -13.10436101054652   -6.82570645614451    1.77592353877392
H         -14.92053959518493  -12.96030419273687    1.55511873224960
H         -12.64788561781450  -15.13351949701006   -0.82756368384819
H         -15.19473708027032  -15.16990588439433    0.86444344791755
H         -16.94887160195586  -15.62493543953304   -0.20725684230188
H         -13.55128932009999  -20.92053628650023   -1.26227951799292
H         -11.32640932878187  -18.21314563815422   -0.71703652693475
H         -12.10061343484148  -16.35602202943414    1.59298072069906
H         -10.41520067192435  -16.81910117725685    1.04849002511155
