98
 SCF done       -207.711344737748          0.000839775695
C          -8.53419384457735    4.92850235994284    7.13750877648921
C          -9.07813931215219    4.01650988789914    8.00379275695387
C          -8.91392938601279    4.05740963736016    9.40361988147925
N          -8.81022664071050    4.04512979539750   10.54641730378775
C          -9.87460611168560    2.92576716063269    7.59719946135157
N         -10.52798853154186    2.03006423717726    7.29996467789194
C          -7.71895881699417    6.08363566558762    7.50365158291567
C          -7.36212224820315    6.79104699395488    6.32505918648049
C          -6.59966273533649    7.93424729385015    6.34926387666302
C          -6.16802671594642    8.40431909968534    7.59367499931085
C          -6.52770776451002    7.69265474593817    8.76358052139108
C          -7.29848393580061    6.53569866573143    8.73917716990502
S          -5.89233180291628    8.44806359656059   10.19146045733967
C          -5.16260135780664    9.69393561828767    9.21367033899330
C          -5.38188990448061    9.55204870341012    7.88428837524532
Br         -4.18162004896968   11.06272985641999   10.03786840270136
C          -7.94101518200746    6.10414916444806    5.16658400268882
O          -7.85342026581843    6.42115733962138    3.98349950149477
C          -8.66619634304736    4.94507048479369    5.69793484109083
C          -9.34550136364683    4.08582270357618    4.87254935604201
N          -9.36568408020889    4.29907247122413    3.55010220523627
C         -10.02919868293537    3.57030318956145    2.62294797020652
S         -10.90864320496544    2.13636809342440    3.04650923180253
C         -11.43313620583375    1.99874617395306    1.39691572823614
N         -12.30462171716813    0.95870425879608    1.06991995216400
O         -12.72349901727292    0.90239434620563   -0.07289556165460
O         -12.61388374743756    0.19283474740038    1.96926685621379
C         -10.95251563430766    2.98710072895196    0.58245872609308
C         -10.14419044466284    3.91786959839232    1.26805321398475
C          -9.56880794708375    5.08377684146924    0.66290335518100
C         -10.13264782254420    5.64211515966586   -0.44209206186025
C          -9.65134200886510    6.74194501161274   -1.17236970305041
C         -10.38634148032755    7.28637839771360   -2.20245960770439
C         -10.02405533238520    8.29216262193510   -3.12958636182861
C         -10.98240865192532    8.55879814718749   -4.06745629529858
C         -12.16026065446032    7.80341777580010   -3.90119414616505
S         -12.01553379213472    6.72606368208725   -2.54346170583222
C         -13.34225110759539    7.78418986424689   -4.63628061268230
C         -13.66222927304000    8.34339190408144   -5.88539430664745
C         -14.89568422025593    7.96237833367032   -6.34433059946245
C         -15.60855130458194    7.11370810944640   -5.46822107674582
S         -14.68419948115418    6.86228655588745   -4.01382083809154
C         -16.75307250423387    6.39366704158124   -5.77631644995454
C         -17.39534464864785    5.48080372085988   -4.93744401156409
C         -18.09081409424740    4.35562354820688   -5.48587976653622
C         -18.32159348961410    3.16940622143403   -4.69956336754772
N         -18.87812530990760    2.09327044349166   -5.27373345084738
C         -19.20727988288482    2.14125358725097   -6.54254287925789
C         -18.97556200374528    3.31640815515921   -7.31937534064532
N         -18.42636451553026    4.38309196753382   -6.77410817831817
C         -19.35415736627895    3.36201018316989   -8.68266215738949
N         -19.66672752378556    3.37311260249727   -9.78496574342939
C         -19.82948928500623    1.01527397795739   -7.14068520586396
N         -20.33487659408155    0.13105682006695   -7.66435321716456
C         -17.90498181780720    3.07559361175943   -3.34691823356689
C         -17.56492981324871    4.30854537537666   -2.73837745202323
C         -17.32250801959749    5.49272759083578   -3.51780311396359
N         -17.05264349387306    6.54335286916745   -2.75412404066688
S         -17.09324755903123    6.10133941866077   -1.20696738525628
N         -17.44298909661156    4.54491638074147   -1.43491661574376
C         -17.84261433720005    1.82772770313813   -2.67714143616377
C         -17.06772225905670    1.53066552034060   -1.59326971364053
C         -15.97631731181837    2.25844484092593   -0.99127407765219
C         -15.06447311776505    3.05623058382653   -1.63874901123686
C         -14.02405803443417    3.74162526179367   -0.99769374663381
N         -13.18698491353201    4.37579517718220   -0.52785952390928
C         -15.04472632593110    3.26151215065704   -3.03135925360187
N         -14.95506304412373    3.45141277222577   -4.16105615334082
C         -15.84119564939543    1.78890523810662    0.37765650659219
C         -16.60218319394646    0.60218908082710    0.52298148828054
C         -17.36055949011294    0.35622615475554   -0.72578103274841
O         -18.10076950414741   -0.56576771421336   -0.97243457999165
C         -16.58564105486318   -0.13745005142925    1.68052059493277
C         -15.80709194749173    0.32993358099362    2.74576957219141
C         -15.10293489110754    1.54902622178678    2.60677468591260
C         -15.10123674189299    2.28795793166322    1.43118073211764
S         -14.23081440734315    1.95003090959023    4.05466899382398
C         -14.78247613804881    0.47843845040299    4.80504479860375
C         -15.59950653570087   -0.26309087079140    4.02131425004278
Br        -14.23723250330192    0.08090039711068    6.55157493794117
H          -6.34541647917387    8.45156532197401    5.43747237322001
H          -7.54660590032897    6.03026642661178    9.65743072963302
H          -5.00554367850936   10.22874625180980    7.13909574652424
H          -9.88951761692718    3.22713426021252    5.24367102107708
H          -8.83988255026149    5.14179006312405    3.25363431999007
H         -11.16615358463615    3.01789631665039   -0.46893409367669
H          -8.69771370387860    5.53188490808746    1.12173306980249
H         -11.06818112740237    5.22244600853747   -0.78836981157889
H          -8.67888820420114    7.15800839689990   -0.94730336711693
H          -9.06310087476040    8.77428156271644   -3.09102574403238
H         -10.87549667594018    9.28136029713518   -4.85676027310316
H         -12.97701108934222    8.96592319817711   -6.43260896911720
H         -15.30235652116808    8.25246435225064   -7.29709155275319
H         -17.09047889722161    6.41635450217643   -6.80490416637967
H         -18.48939853938574    1.04307230843626   -3.05299620988859
H         -17.14657111909116   -1.05515796054851    1.76195638719153
H         -14.54505938692424    3.20930894447745    1.35979801104228
H         -16.03070750767362   -1.19929103706420    4.32513127566323
