96
 SCF done       -187.629894123851          0.000797469109
C           2.06615868175500   10.90363716594445   -2.20613538323572
C           1.43311870934507   11.35384769239081   -1.07458782995280
C           1.64600579228217   12.62640407956755   -0.50524755380782
N           1.77064441154500   13.64705693320573    0.00649871192888
C           0.49702809587917   10.63389490302691   -0.30333929125485
N          -0.26997407279262   10.13309533711271    0.38970283615742
C           3.04946452364471   11.66286265741133   -2.97536822724834
C           3.50826102266834   10.85700649637319   -4.04605953321423
C           4.43854890709472   11.28949256860791   -4.95851501571034
C           4.94244689624969   12.58619265274848   -4.80921141728011
C           4.47983901149791   13.38521841573284   -3.73766166394017
C           3.53888578540697   12.94501444091790   -2.81380848066828
S           5.22941588801523   14.95288916601921   -3.73987410610059
C           6.14145298835542   14.51871693054379   -5.16108334898580
C           5.89906778551143   13.26535017709070   -5.61245491467582
Br          7.32577407395463   15.76167967883914   -5.91631755709333
C           2.82597929459192    9.55185214147241   -3.99102559083715
O           3.00226587357180    8.61790657480286   -4.75556310928524
C           1.90907732582142    9.61615808055320   -2.85058974984593
C           1.01511038533577    8.63652041811525   -2.48882927627120
C           0.76550920405096    7.38893065125761   -3.06380348758987
S           1.61820705515715    6.64526759723211   -4.45161492800544
C           0.56210355536351    5.31160792116332   -4.29895403811479
C          -0.34828170209843    5.51633206645715   -3.22922755470649
N          -0.21301883443056    6.63932584462477   -2.57535772864391
C          -1.30556858188397    4.37406949037247   -3.10813972531169
C          -0.86390201702476    3.51202886764095   -4.25254067788959
C           0.24084979063927    4.08716465905022   -4.90562909256822
S           0.77662613862775    3.13175361781517   -6.22900840428064
C          -0.51338961663411    1.97446420486382   -5.94001749737284
C          -1.28606375359376    2.33413330090176   -4.83312662509775
C          -0.69481344152786    0.89495916371457   -6.82515933458509
C          -1.80068494436228    0.08834171019671   -6.81237817945299
C          -2.08433680774318   -0.91296755190488   -7.74604484283863
C          -3.30510139283795   -1.54956525281043   -7.79283623304583
C          -3.76862887141349   -2.48095849030003   -8.75253774157168
C          -5.07999231816761   -2.82564519192236   -8.61030948890579
C          -5.72322712215064   -2.19677461584530   -7.52001239288703
S          -4.59131634913396   -1.18411044832068   -6.65483584997140
C          -7.04804976910878   -2.22672211945311   -7.13756588903165
C          -8.14291965057724   -2.82907088105736   -7.80189336024008
C          -9.34230527155785   -2.53589527771844   -7.23362011583296
C          -9.25293800415067   -1.70200847914158   -6.08344958060475
S          -7.58433739700079   -1.34695581732873   -5.70865141021047
C         -10.27154333223656   -1.16219134713517   -5.35324418749325
C          -9.97869844934929   -0.33568988743773   -4.22832912628601
N          -8.68335982617071   -0.25921095982975   -3.87767944860453
C          -8.36646252240069    0.44139802393185   -2.81070238923834
C          -9.32732317589926    1.10193401337904   -2.06333109634776
C         -10.64803252538493    1.03709280964427   -2.53984030484013
N         -10.96322893758551    0.31433578181386   -3.60880376331954
C         -11.69626010695537    1.80736913403331   -1.90210356573108
C         -12.87466250390214    2.06479397083084   -2.50400044597657
C         -13.84157708641077    2.93702473503178   -1.93469249193859
C         -15.00827245587544    3.35495217951445   -2.48780337077775
C         -15.70004645291871    2.95829058544075   -3.70016268329324
C         -15.75987144467176    1.69794190538815   -4.22828597745465
C         -16.48986728302210    1.37306060235846   -5.39124963022039
N         -17.05325793627549    1.06587921160887   -6.34277391720887
C         -15.20414134883205    0.55469962089268   -3.61088427578617
N         -14.83651169637074   -0.41591542471242   -3.12286138454549
C         -16.49686022532615    4.10288030010742   -4.12872685639808
C         -16.50755953913399    5.06686876044363   -3.08766785642760
C         -15.65737544967297    4.59708657866326   -1.97650284565583
O         -15.46746375669480    5.12636382548799   -0.90745156044440
C         -17.19852390310705    6.25054070539259   -3.18611767391937
C         -17.89996285041270    6.50035560035389   -4.36996519295807
C         -17.87446286810814    5.53616872778970   -5.40714878610964
C         -17.18507905441416    4.33423693805719   -5.30466601096327
S         -18.79383836260989    6.05683584630815   -6.78559118191305
C         -19.19657972228075    7.54080641523757   -5.96246421597148
C         -18.67092574611022    7.64289993810941   -4.71855820007765
Br        -20.26835629422579    8.81478945855665   -6.82460627757501
H           4.76622188553817   10.64958425082540   -5.76274772857194
H           3.21881658679584   13.59521352863749   -2.01722107241225
H           6.37329441598310   12.83590099577570   -6.47600683476408
H           0.36271599985297    8.82928254376498   -1.64614826692778
H          -2.34165121404359    4.70203735478446   -3.20641499363154
H          -1.20820828988956    3.86727750763583   -2.14619278780197
H          -2.11459481942081    1.74614671173355   -4.48438712086861
H           0.05721674677287    0.75214197287260   -7.58928223327350
H          -2.56155086516776    0.26674504132881   -6.06441116085491
H          -1.34960163764734   -1.16036416978542   -8.50006800704836
H          -3.12438528287370   -2.84953088786998   -9.53154848975583
H          -5.60203688635593   -3.50609326681295   -9.25919735347818
H          -8.02235274415873   -3.42968470879928   -8.68664686011590
H         -10.29496202564853   -2.87467005695269   -7.60111467914749
H         -11.30375068100883   -1.33308696550396   -5.61009689020803
H          -7.31526150461482    0.46991629231383   -2.55356031031765
H          -9.07437455033157    1.66665379379155   -1.18148136772310
H         -11.47109499174563    2.21960489161696   -0.92744638656059
H         -13.04066794550695    1.64255894167692   -3.48378055627273
H         -13.57278941684923    3.42140041179325   -1.00127915500281
H         -17.19439806517833    6.96382525612257   -2.37696797705820
H         -17.18597609288754    3.63305595156515   -6.12287888233473
H         -18.81722504509384    8.48937508565090   -4.07279148979282
