88
 SCF done       -166.394524769315          0.000615589173
C          -8.95163216226762   -0.70509276785241   -7.45106587611921
C         -10.01780805956427   -1.54544275713030   -7.61611824532883
C          -9.94951162650023   -2.77830286594504   -8.30259652335561
N          -9.96386280651454   -3.78782606984890   -8.84839706640642
C         -11.32092944266716   -1.35537974429024   -7.10444568080621
N         -12.40320729602024   -1.30957280330717   -6.72506329238109
C          -7.59701666142133   -0.95926726030148   -7.91405490032240
C          -6.73923310423926    0.03639249424661   -7.38254763155663
C          -5.38668102936225    0.05685048347418   -7.62701743606915
C          -4.86052273113857   -0.94185036982816   -8.44884244155840
C          -5.72257673046387   -1.93048983287238   -8.98363778342745
C          -7.08688821626543   -1.95812439119104   -8.72732661961131
S          -4.84859782278206   -3.06163182746396   -9.97079148836518
C          -3.36213304540979   -2.19698903678077   -9.65368220578882
C          -3.50928524964897   -1.11837803846797   -8.85020687042793
Br         -1.76817715574821   -2.81217139326854  -10.42173383737068
C          -7.51533820504062    0.97511593947996   -6.55575613108734
O          -7.05167656544844    1.83333872260304   -5.84221702419782
C          -8.94852138455909    0.57982939781108   -6.74290332817308
C         -10.06290319059424    1.26739172569204   -6.41482871348216
C         -10.19158774355404    2.58836112851624   -5.82219258822471
N         -11.42986828335614    2.89127869815604   -5.41343436484753
C         -11.60383723344254    4.08356613631629   -4.87295426253430
C         -10.57202970320290    4.99627919243435   -4.72897979859232
C          -9.31163825453894    4.60010364483589   -5.20060773407004
N          -9.15152974828595    3.39669858444058   -5.75366252961753
C          -8.14280747374770    5.44177290511859   -5.11187652658010
C          -6.94045106454453    4.94339217241187   -5.45188806863168
N          -5.76869117589219    5.63219419574335   -5.40767478493104
C          -4.56104825068516    5.13779053072586   -5.77833670015211
S          -4.41554759590373    3.52603789545120   -6.38107997583164
C          -2.71038809105610    3.78979135561304   -6.62038956633014
N          -1.95929702348780    2.74660856179053   -7.14326565934747
O          -0.76436660182495    2.91660016841334   -7.31528316336149
O          -2.56060455672502    1.70757187855491   -7.40537784458689
C          -2.29513842770252    5.04278612318573   -6.24983640441794
C          -3.34238874877412    5.84434628378448   -5.75519031456676
C          -3.21231296307747    7.18652835814274   -5.28271576359136
C          -2.08950455351915    7.95053460937874   -5.38733463205727
C          -1.99832759170065    9.26276759316590   -4.90032346876919
C          -0.89444332203386   10.07180600057703   -5.04185361794663
C          -0.74683801984756   11.39718286683561   -4.57612931235490
C           0.45613344430076   11.96804712925572   -4.88091923694049
C           1.32121333681063   11.12582921533701   -5.60302259872939
S           0.56646580731183    9.57320969766610   -5.87935517745310
C           2.59576313497778   11.41801421817258   -6.07304465023754
C           3.30826377624146   12.62143227178613   -5.93898822164395
C           4.54469304813454   12.59873460183033   -6.52904389782295
C           4.86400381343751   11.38133231129348   -7.15134531971019
S           3.53947780408572   10.25014265120710   -6.96670639112098
C           6.03787957739095   11.07215802079041   -7.82568947869469
C           6.30744229169304    9.85573174468142   -8.41795905575486
C           7.47937460295389    9.54642613985198   -9.09365253824119
C           7.79799507731755    8.32010734248268   -9.70498529207769
C           9.02751990502124    8.29167330198925  -10.30186316342508
C           9.74156119711594    9.50186912292827  -10.19039386357755
S           8.79852941399015   10.67901504181579   -9.29957711197191
C          10.99920388693046    9.79457393336108  -10.68281364037196
C          11.85773156844586    8.93167886908688  -11.41243923536777
C          13.03816892771312    9.49049491789900  -11.77024925546401
C          13.20054447655187   10.84917202095230  -11.34582902453623
S          11.75134940963539   11.35845467444993  -10.46404311563677
C          14.25179129477450   11.65679865930842  -11.55137106045085
H          -4.73973447619984    0.81250435741995   -7.21255664305822
H          -7.70421295369283   -2.72881915887490   -9.15747018809465
H          -2.71897348219425   -0.45720679914152   -8.54318453280043
H         -11.03097324229233    0.82518837037981   -6.61292346784631
H         -12.61149707295826    4.30911494905618   -4.54693966406013
H         -10.72743712658564    5.96319494810855   -4.27828382272147
H          -8.27307528199838    6.45317841754009   -4.75333184909506
H          -6.88363876688065    3.91193524078071   -5.77237719463086
H          -5.79415155022986    6.59513946746471   -5.09299910766740
H          -1.26894436461802    5.34998851794405   -6.32875084656818
H          -4.07622642286632    7.63036700295430   -4.80364197185647
H          -1.21322615954513    7.55314508330179   -5.87982318595343
H          -2.85089759076725    9.68117050282633   -4.38076618836027
H          -1.53236988904646   11.89075072489049   -4.03146324033236
H           0.73517676116864   12.96905176867524   -4.60484823874945
H           2.90378402849382   13.47154923525336   -5.41999798768185
H           5.23007900487848   13.42799018393876   -6.53025589770940
H           6.78762034270613   11.85158678510977   -7.88277378846344
H           5.55898493814767    9.07537554789726   -8.35787314732459
H           7.11310569472548    7.49063605976911   -9.68832347663118
H           9.42951295024069    7.43604787424911  -10.81353714372706
H          11.57022509486662    7.92235869853738  -11.64764005442349
H          13.81264396052392    8.99137373118156  -12.32481890720020
H          15.11301194776220   11.30810278559379  -12.09330121789617
H          14.26868677479094   12.66743133084186  -11.18704673047033
