98
 SCF done       -191.423397010775          0.000748079259
C          -5.65690193473756    6.98345377201171    4.40495570209219
C          -5.23684361760044    7.83367862719004    5.39726839602568
C          -6.09194873539803    8.69931506354824    6.10886968944048
N          -6.73961447341564    9.42911827035500    6.71402339611685
C          -3.91201321511183    7.92336733039843    5.87255031857140
N          -2.86435457068724    8.02945046925404    6.33125932668205
C          -7.04053642493094    6.77697593908256    3.99088269127364
C          -7.07466925889069    5.72074373371085    3.04776171367579
C          -8.24073231218520    5.27724758693762    2.47490733567446
C          -9.43308141108397    5.90656767287404    2.85138912187416
C          -9.38832238433294    6.96428509011760    3.78944177418714
C          -8.20699526258644    7.41276290726682    4.36952722315220
S         -10.97167502275141    7.60675551605239    4.10491440798219
C         -11.66328910428192    6.45920358047967    2.98989485447599
C         -10.75695270416504    5.63683960420966    2.40946990058505
Br        -13.51605996999144    6.45354836933966    2.69614889608056
C          -5.70118373922115    5.23995528919097    2.80211658783331
O          -5.36783135745245    4.39295331530584    1.99258348549274
C          -4.82828577099123    6.05785855563464    3.66211653544924
C          -3.45290246480114    6.09781255257535    3.60504123978906
C          -2.56542858692718    5.14693775474428    3.07664534417204
C          -2.69195297553233    3.75395017564998    2.93348726991276
C          -1.51163901430895    3.17748050267374    2.34138307404210
C          -1.18170378758322    1.83827513759201    2.14814143975699
C           0.03433984460050    1.50557904417140    1.56713497670856
C           0.96028169478211    2.49439443477940    1.19804892220394
C           0.68213104887250    3.81784755556316    1.44876240340298
C          -0.53658117568573    4.14863191935990    2.02867432136547
S          -1.02027162189473    5.74366606715059    2.49983693525247
C           0.34102284868822    0.14363354598692    1.34196824338908
N           0.58137315412965   -0.96102675105259    1.15175548755263
C          -3.81786741324633    3.08259124059944    3.45590585594670
C          -4.46544673163826    1.94381465610947    3.03039820510347
C          -5.61311085665602    1.40401904833232    3.65713086532225
C          -6.18945199048698    0.36632834957471    2.98077703218518
C          -5.52225635250542    0.03250975385225    1.78913130725324
S          -4.15653791258414    1.08193900674166    1.53847760661779
C          -5.82914981611839   -0.99374832539855    0.89545155840526
C          -6.92230945406144   -1.86950965227782    0.92944886241508
C          -6.92377202088835   -2.78483088471791   -0.09515345821091
C          -5.83043752958278   -2.67066463849875   -0.96295932480769
S          -4.79866825855392   -1.35294029826431   -0.46593693475227
C          -5.55310706422720   -3.48189796833350   -2.06507166213036
C          -4.43193645950828   -3.37953958863323   -2.84935561150077
C          -4.14802990748644   -4.21035036945630   -3.93522160348282
C          -2.99964886169048   -4.18559002370851   -4.73539678437513
C          -2.98696948100088   -5.13976439120529   -5.72484484718421
C          -4.13261817423098   -5.94558771540014   -5.73976637336549
S          -5.22913255476987   -5.47364138401380   -4.47044440118323
C          -4.43461513744067   -6.99692307067638   -6.60867408423546
C          -3.64877898756415   -7.50033997557027   -7.65658754057695
C          -4.23068825453720   -8.54657802679055   -8.32421440873523
C          -5.49912926940402   -8.90353680990642   -7.83244233851794
S          -5.93220110627492   -7.88060714770315   -6.48478938273961
C          -6.31444565039085   -9.92437856759846   -8.29915774600837
C          -7.57350362710666  -10.19310446672837   -7.78596442219597
C          -8.44085723330949  -11.21004148091947   -8.13805461295208
C          -8.25063011745543  -12.42472018772428   -8.87633972449815
C          -7.07706588589743  -13.12999174594015   -9.03166735904083
C          -6.97516201618143  -14.33789482048510   -9.74712416544189
N          -6.82621756492890  -15.31282196710957  -10.33660540308582
C          -5.86009444290247  -12.80103554244679   -8.40469345341268
N          -4.85305086530747  -12.61545155070575   -7.88350183343180
C          -9.57553676591708  -12.91658548641777   -9.25914175755522
C         -10.55597983333861  -12.12781216125590   -8.60729772856842
C          -9.88071626784942  -11.06444638344094   -7.83303766842040
O         -10.39616123377714  -10.22320108877776   -7.12743816219833
C         -11.90143376592330  -12.36559565698230   -8.73708026041799
C         -12.30060731419338  -13.42668544468133   -9.55827791983592
C         -11.31519273577010  -14.19934998716488  -10.21444249239200
C          -9.95141405840007  -13.96340950347170  -10.07653447251931
S         -12.02723471249169  -15.45172371838229  -11.18640937724505
C         -13.61824220305202  -14.92885404778713  -10.70040684679322
C         -13.61851929182587  -13.87079186420821   -9.85607423766056
Br        -15.12856250309528  -15.82848100738847  -11.35595205711021
H          -8.23502043907889    4.47028263103417    1.75889129889909
H          -8.22378385796663    8.22585458598457    5.07583059901263
H         -11.01030248589696    4.87301618543514    1.69708633054517
H          -2.97345560736261    7.00161790657469    3.96426523165316
H          -1.85005464131076    1.05169738123162    2.45588174208193
H           1.89424719666272    2.20456882386392    0.74156293179777
H           1.39506306926779    4.59170450227647    1.21208317192679
H          -4.30507079094623    3.59229993826563    4.28176877597750
H          -5.98132626893545    1.80002859786383    4.58719099501276
H          -7.06399964448686   -0.16127155961312    3.31604117081987
H          -7.68087486143794   -1.81468875082774    1.68889793242677
H          -7.68039804204872   -3.53664899928013   -0.23302308572915
H          -6.27803564363655   -4.25385080247162   -2.29150403802227
H          -3.69822492223733   -2.61816075684610   -2.61552082883205
H          -2.20724484017842   -3.47786428741485   -4.56793222976508
H          -2.18379971477867   -5.26794839044269   -6.42728046633696
H          -2.68306021634973   -7.09432830861687   -7.89737632784366
H          -3.77838453669816   -9.07005505953171   -9.14720463117529
H          -5.93100720071315  -10.50326450642673   -9.12661350942046
H          -7.98599110286466   -9.47799484656201   -7.07946773809308
H         -12.62552442902908  -11.75380141954034   -8.22231779261903
H          -9.23851648983238  -14.57829168647718  -10.60026955445030
H         -14.50942054091985  -13.42001891694042   -9.45839183252870
