102
 SCF done       -197.089583047334          0.000773264675
C          -3.64692626652165   -3.27272950928888   -1.60475846350601
C          -2.79840803272999   -2.77618011542747   -2.56502876530568
C          -1.76682240747733   -3.52100476464378   -3.17035403514302
N          -0.92615467544769   -4.07520714414909   -3.72332270005419
C          -2.80874693745909   -1.46002279312666   -3.06585634576977
N          -2.72841140094606   -0.40538165711422   -3.51666317776223
C          -3.54927293383443   -4.59832058826272   -0.99848136555788
C          -4.52739990874289   -4.70012590777416    0.02092595757005
C          -4.68527330332243   -5.82672391236687    0.78868971076772
C          -3.83796051322688   -6.91143495667810    0.53490086438581
C          -2.86584556027642   -6.80260321234638   -0.48627572042845
C          -2.70373399850068   -5.65875055693071   -1.25996249938047
S          -1.92878707445869   -8.25886727974609   -0.63400191269788
C          -2.84357538511522   -8.98322479930771    0.66136989273694
C          -3.80129606354486   -8.17835342450872    1.17931209926286
Br         -2.44858771180569  -10.73409094722135    1.20728462224494
C          -5.28754816743725   -3.43668441697860    0.08535323885526
O          -6.18433454710308   -3.17648159963663    0.87084109117334
C          -4.75565062766915   -2.58937310464753   -0.98076565570359
C          -5.31458179743025   -1.41038368622098   -1.42656169264161
C          -6.37004523156516   -0.66368794022228   -0.90739929105527
S          -7.00109552986771   -0.84464009651902    0.71630682179619
C          -7.89124381454422    0.58568112024114    0.59058880957751
C          -7.80502384343327    1.19115474879142   -0.65367178436587
C          -6.96115449450643    0.45968686509256   -1.54237351925049
C          -6.80264564532560    0.88202771834367   -2.88278107805959
C          -7.41718979994216    2.08438482665233   -3.25491969140848
C          -8.20351884726901    2.82576090284562   -2.34674694055575
C          -8.42071853301871    2.38718856115631   -1.07528457079770
O          -7.35956456325094    2.57414332364724   -4.50709201281978
C          -6.13224846662554    0.05328725143903   -3.87139208235020
C          -5.25137043377061    0.49103225504321   -4.80313200765977
C          -4.64327899343656   -0.34776750370606   -5.76632553610248
C          -3.73778388303631    0.09352388097606   -6.68985061090276
C          -3.04306189354843   -0.68248467564215   -7.65462521891523
C          -2.21306462048469    0.03521229536546   -8.45707879132915
C          -2.20726993721260    1.42375614638080   -8.18368958364542
S          -3.27922696300985    1.78235194274560   -6.84948770351916
C          -1.50591088329982    2.41762113116996   -8.83333414483206
C          -0.61653138799612    2.29616287347442   -9.92525023010022
C          -0.09803237830591    3.48108734453511  -10.34634138449796
C          -0.54555499458095    4.61186849301809   -9.61438801318177
S          -1.65472256792477    4.09811254570856   -8.35680998563965
C          -0.18578907970286    5.91255712227317   -9.86252381373403
C          -0.57022960239187    7.06128490657645   -9.15034063218625
S          -1.36587587275728    6.93493415005209   -7.59832076204205
C          -1.22759863635290    8.60403151897844   -7.30532066176733
C          -0.61394895670150    9.27057560437315   -8.34708291751517
C          -0.27877320229492    8.40658299814131   -9.43902952720265
C           0.26700186056600    8.95425725049417  -10.64159448183260
C           0.67003359935501   10.30029926827602  -10.60245324081395
C           0.36107091214865   11.12404479255198   -9.49796863587212
C          -0.30047332782889   10.64485767532699   -8.40817194132332
O           1.31690008499207   10.83325658606663  -11.65409039708426
C           0.20987378442459    8.21624284021916  -11.86520585287575
C           0.84897780357789    8.47927157801879  -13.03768719631392
C           0.59301095035796    7.71507236524628  -14.19333971805464
C           1.08152710115381    7.91336717623911  -15.45622824424839
C           1.78844946030586    9.01904290191068  -16.05298402265719
C           1.70267007796443   10.34525817548618  -15.70457996371261
C           2.40980855146885   11.37523689600033  -16.35696258593085
N           2.97518596105901   12.25444167647949  -16.83333441711055
C           0.82274645276943   10.87714546475275  -14.74309603590089
N           0.10405304919317   11.40661453000788  -14.01958440602123
C           2.44346478892504    8.51637057102806  -17.25966194837633
C           1.97361403686576    7.20427962137214  -17.51747698980089
C           1.05509278176435    6.79804680193783  -16.43244014685549
O           0.44550934701171    5.75554674846299  -16.33246170984423
C           2.37101861855772    6.48027012422393  -18.61432886531736
C           3.28501424930752    7.07326568314103  -19.49260594227549
C           3.76052654021676    8.37636274003829  -19.21717138402132
C           3.35146622346111    9.11351815748857  -18.11201947503402
S           4.89136249831436    8.91268367767217  -20.42296443514024
C           4.70777922053969    7.40079733839830  -21.27211456149777
C           3.84709916879803    6.53713660992164  -20.68409484566263
Br          5.67223211450161    7.10550604785177  -22.85411146761014
H          -5.43766874200382   -5.87211289643002    1.56032624843417
H          -1.94790091375115   -5.62567178549626   -2.02675348022758
H          -4.45617442834749   -8.46428691648666    1.98204994221640
H          -4.87819817490458   -0.98361784909490   -2.32164215482960
H          -8.47202936175733    0.93660350651733    1.42240287950071
H          -8.65076200306826    3.73447156009434   -2.71673600706711
H          -9.05051032011174    2.93410449858399   -0.39187601306585
H          -6.86239331406685    1.97230322403399   -5.08314371509481
H          -6.39686831675645   -0.99837093235031   -3.85531799821673
H          -4.90540919908930    1.51800845857336   -4.78699201729045
H          -4.89346575414786   -1.40056110117492   -5.76394876241206
H          -3.17811032464862   -1.74812480953559   -7.71402214181958
H          -1.60790204292029   -0.38997489915106   -9.23765404290764
H          -0.38800189503881    1.34367097908161  -10.36845306094302
H           0.59130375165165    3.58629936860397  -11.16569664497737
H           0.51336731469142    6.06166498616722  -10.67416968203380
H          -1.58280250641676    9.02056237247679   -6.38419081703331
H           0.63859057319171   12.16841125089178   -9.55202582121774
H          -0.57283703932644   11.29065179995710   -7.58819993965755
H           1.29827488968301   11.79915235977566  -11.61924575071188
H          -0.51913146079101    7.41473641685549  -11.87332954806421
H           1.59119814361334    9.25725638351712  -13.08984961471387
H           0.00729182038834    6.80864856070710  -14.07183457034576
H           1.98947281866705    5.48692690745757  -18.79140475632967
H           3.74536777720732   10.10182513668884  -17.94250222125186
H           3.61651316718117    5.56186418570690  -21.07227567793212
