111
 SCF done       -206.515051965405          0.000555467228
C          -3.74985777080280   -2.38983802879003    3.45664553883197
C          -4.33116858812118   -3.61775206292075    3.24095369130081
C          -3.65068986192837   -4.74702894813456    2.74958635444136
N          -3.18357990968072   -5.70270774075215    2.31469845889875
C          -5.68186685831608   -3.94755122681989    3.45562771371297
N          -6.74504619897410   -4.34502390734652    3.64817743987198
C          -2.31465799481164   -2.12990228263099    3.46086899422792
C          -2.10172156064460   -0.77742276713949    3.82639613530649
C          -0.84713702383791   -0.26142272523224    4.03592895193720
C           0.24805334523190   -1.11791439100449    3.86953468703478
C           0.02513088571193   -2.45535855844208    3.46480804400097
C          -1.24510282913388   -2.97945940584928    3.25664894017123
S           1.51520150916048   -3.32883637668922    3.28369625664270
C           2.40605796587717   -1.90640800601655    3.75791326322594
C           1.63090749677299   -0.83210179217446    4.03799751678451
Br          4.27754064008862   -1.96958835678594    3.83295275848909
C          -3.41217263687155   -0.10224776757780    3.97500139252164
O          -3.59944464530537    1.07790446826369    4.19926842438167
C          -4.41922565101738   -1.15731724677262    3.77621318990567
C          -5.78694985923342   -0.99512186746330    3.82005462082690
C          -6.51349532865182    0.17132436349089    4.03364684050395
C          -7.89435726528782    0.15128997395908    3.92291075683472
C          -8.80418499721035    1.23361589069123    3.89255486809230
C         -10.08225522214349    0.88194565188337    3.55656306689846
C         -10.24477739892879   -0.49972664253772    3.32297060930739
S          -8.74798318086190   -1.34768744526890    3.64158985758933
C         -11.26903961323895   -1.20886295775690    2.72063713954633
C         -12.41004470036459   -0.76139092871444    2.01300980156700
C         -12.94202779843828   -1.70486190068807    1.18452906977909
C         -12.23144709288072   -2.93507462124980    1.17906626427416
S         -11.05512373401526   -2.92726828844529    2.48261595610807
C         -12.31913121514488   -3.96606887999993    0.28100506273178
C         -11.33408136864081   -4.96050425166386    0.09022223707708
S         -11.80010815350755   -6.49567782170387   -0.60424067245242
C         -10.15919249971924   -7.08409509836193   -0.54986862220933
C          -9.30845640383749   -6.12949855373119   -0.02805930546718
C          -9.95352476082413   -4.90885490247923    0.28689388273810
S          -9.08846278860203   -3.39507852342288    0.55682618717312
C          -7.60543998615775   -3.71449184792372   -0.46951390995595
C          -6.63624817019954   -4.42801107643885    0.42303254975698
O          -5.58960902811235   -3.94636598215515    0.78019865803895
C          -7.12110593881029   -5.76788186840133    0.93771337760642
O          -7.98217491821412   -6.44793624675379    0.05405557678834
N          -9.89157252536537   -8.38780407117448   -0.91371939207888
C          -9.28837208438807   -9.28519448669379    0.08138096436912
N          -9.12809820164058  -10.52474275731945   -0.62698474917099
C          -8.70143407693608  -10.12927289054993   -1.96552101833260
C          -7.17456965047051  -10.09540874924849   -2.01781820983776
C          -6.67213977186990   -9.58325490934421   -3.35831310915248
C          -7.33149908550538   -8.21915484912128   -3.76137571687741
C          -8.26214721281076   -7.69430143505481   -2.67430378847563
C          -9.30970955648616   -8.72044870730175   -2.21615377051785
N          -6.17527800914256   -7.35139013170685   -3.98729450104229
C          -5.02106621488714   -8.22758517518390   -4.18748313743122
N          -5.23302631958730   -9.35480327445975   -3.32693129102642
C          -6.10096166810043   -6.09391406731449   -3.53673741087901
C          -4.99158647714945   -5.40193152495817   -3.14632929416736
C          -5.12611899681164   -4.14691297634159   -2.52856468960172
C          -4.26015106720530   -3.54329666846107   -1.65853332570803
C          -3.04922898289499   -4.01478026887071   -1.03200728293118
C          -2.72931745354804   -5.30595159735825   -0.69042886528151
C          -1.52303988755096   -5.63891995182339   -0.03848622917336
N          -0.52115355750544   -5.92808640379814    0.44114159035737
C          -3.60219828347635   -6.39710302418680   -0.83995844730877
N          -4.30268011007994   -7.30568611116619   -0.92306296761973
C          -2.33176018038727   -2.83266113993793   -0.55455852359500
C          -3.23422607063474   -1.73966827735965   -0.55196986803193
C          -4.48956855485923   -2.15734729478007   -1.20883645256669
O          -5.49398128850075   -1.49398292344273   -1.38065422872616
C          -2.88894601880535   -0.50383929272139   -0.06251396088751
C          -1.56852985394130   -0.31584338167649    0.36037255932317
C          -0.65274472579744   -1.38715916185511    0.25655425133963
C          -1.02098866500708   -2.66153218411034   -0.15957042038019
S           0.95439150972802   -0.89539051781644    0.69504374535719
C           0.36670623805921    0.70151861978728    1.07544470341604
C          -0.95706411123354    0.86956024969548    0.85662307394391
Br          1.55870938410330    1.98241174713298    1.74238688219991
H          -0.70992938301477    0.76703381905585    4.33251167585532
H          -1.36589261611662   -4.00847487506486    2.95985244990068
H           2.01612343857048    0.12346895285388    4.34459065282686
H          -6.37713545282996   -1.88257632495041    3.62474987618301
H          -6.00224348549900    1.10317421686584    4.22377231261347
H          -8.47939045240795    2.24406680804829    4.06784422059478
H         -10.89381961936457    1.57910537104716    3.44493891439581
H         -12.76130338602932    0.25258225243025    2.08394157813978
H         -13.76356827484771   -1.52936886374555    0.51258114017912
H         -13.19525613838157   -4.02539189170229   -0.35087446920684
H          -7.21858980220390   -2.74063503496080   -0.77138952051016
H          -7.89942466502035   -4.30820970334655   -1.33243013165158
H          -7.57912889761552   -5.60040121097980    1.92422507198431
H          -6.25729997400367   -6.42591939138218    1.07383391737829
H          -9.95158826011665   -9.38593582854161    0.94208166580021
H          -8.30774809315891   -8.92539744367254    0.42273655618144
H         -10.01793101239193  -11.00947256376181   -0.67275795102551
H          -9.06561088091161  -10.84972201223142   -2.70236431646806
H          -6.79211214152274  -11.10079149635700   -1.84446634775304
H          -6.79747447253998   -9.45763345924731   -1.21827222660500
H          -6.87803923825742  -10.32355404039516   -4.14157281386630
H          -7.88103484783021   -8.33333917902531   -4.70477098264862
H          -8.79562025764806   -6.80850667798328   -3.02891412299870
H          -7.65541193163636   -7.41045483954617   -1.81484986696879
H         -10.11904113719065   -8.77193108017191   -2.95617001243645
H          -4.07827913232632   -7.72860874272812   -3.98196741431751
H          -5.03545079177585   -8.56325497670618   -5.23444921558765
H          -4.94011955848430   -9.11655170980171   -2.38115667402853
H          -7.05809840920321   -5.60052603144068   -3.42763151663486
H          -4.01354528911224   -5.85295058413249   -3.18450506523153
H          -6.01885274585987   -3.57413193437417   -2.75489306552780
H          -3.60369976328068    0.30362885507443   -0.03109720278060
H          -0.29465956671443   -3.45684094039753   -0.19521520354340
H          -1.48595111950870    1.78745910009378    1.03797933998544
