99
 SCF done       -179.933245566287          0.000515108369
C          -7.27382547922507    1.99379793431957    6.77022581874824
C          -8.57649161377046    1.55717206537281    6.82066955007843
C          -9.21880933950129    1.12369342270149    7.99636697063536
N          -9.79526789048565    0.77032219596724    8.92498873535487
C          -9.42571301928881    1.45562911385835    5.70107915961881
N         -10.16237293974534    1.32615191891223    4.82869460312192
C          -6.33438162292175    2.00968360539408    7.88564665613068
C          -5.06601907471516    2.41101869423780    7.39996772530300
C          -3.96415987040755    2.52321131050538    8.21067424495289
C          -4.12146629016892    2.22418403910894    9.56896637079014
C          -5.39264431614174    1.82793775896764   10.04556005671150
C          -6.50808282800273    1.71339667255687    9.22374590480873
S          -5.36587924629000    1.51791536632452   11.75531116552724
C          -3.66944254863568    1.91788225960265   11.80468328485629
C          -3.14799815308920    2.26544188132574   10.60463449430987
Br         -2.74871406038506    1.84348015744641   13.43713746660556
C          -5.15672466899485    2.68352490380915    5.95064303855435
O          -4.27048816386843    3.12344820925131    5.24469586744973
C          -6.56738153412052    2.42812509317266    5.58976655257540
C          -7.14723085269999    2.79829562449151    4.39743151254535
C          -6.48033233972100    3.04207885846068    3.18922436606299
S          -7.16019173675475    4.17988582639436    2.06668408965862
C          -5.84693727832155    4.03480684329476    0.95431778717363
C          -4.92459483390279    3.07107485822041    1.41168997728870
C          -5.29381543138318    2.49999884260126    2.66205161909963
C          -4.53685728557097    1.44121105384317    3.18741449020509
C          -3.39321765781043    1.05223672736216    2.54657117528612
C          -2.55168991276900   -0.06583467544520    3.09103853437263
F          -3.06155496912255   -0.59262968598843    4.21666708950999
F          -2.43481831528278   -1.09094133357550    2.22714160458887
F          -1.30267181738898    0.31804444019008    3.39371564415069
C          -2.95863465698578    1.68193227831971    1.34381840826099
O          -1.79520410882941    1.21685955879359    0.84229188357289
C          -1.28433222727520    1.78849258807241   -0.33828400566279
C          -3.73832070409848    2.66116914137972    0.77540038694180
C          -5.74243501935205    4.77247146843358   -0.25651603617735
C          -6.46507825196476    5.83597876369822   -0.66219672950396
C          -7.55851585020816    6.46551947590261    0.13253844452698
C          -6.16868515547299    6.46083754793546   -2.00623919144185
N          -7.35745099327212    6.82744189543903   -2.73704121223599
C          -8.33688278506971    5.94163345748843   -3.03526272272777
C          -9.56021359513731    6.30469988197805   -3.49799095777458
C         -10.57361037862366    5.39533537151186   -3.85274155196104
C         -11.80692688961533    5.76729439899521   -4.31730142693409
C         -12.88580179135340    4.92594837021272   -4.68356857007027
C         -13.99483328008739    5.58683591769433   -5.11415964273643
C         -13.86173525686218    6.99492254530883   -5.11718950398292
S         -12.27266933841845    7.45239773224270   -4.54676660960348
C         -14.79121053460084    7.93852418452061   -5.50124153568824
C         -16.10481607618356    7.73200119814241   -5.98015702287389
C         -16.76814460567885    8.87857247474150   -6.28209010013204
C         -16.02833078168592   10.07637126954083   -6.06513787855254
S         -14.43520441482676    9.65421736212616   -5.44804734714094
C         -16.51098619089650   11.32921801465653   -6.31123805618954
C         -15.90097423886510   12.60789564197137   -6.15122580612558
C         -14.61366216529032   12.83357451232592   -5.67812014695317
C         -14.09016350795806   14.11961773304262   -5.55192004633009
C         -14.82691309664219   15.22645810841611   -5.88987681820075
C         -16.13704234145442   15.05844555398863   -6.37364018165606
C         -16.68121070679539   13.75539988977781   -6.50882307315490
N         -17.93339161066213   13.59549418301205   -6.97524344480411
C         -18.63117857732139   14.65699715668882   -7.29519271446722
C         -18.08534702224310   15.96475524207665   -7.15472821323107
N         -16.87012235481606   16.14301296397489   -6.70619584997442
C         -18.87339181982176   17.18198560971661   -7.51189092530240
C         -20.01586989082603   14.43890385741248   -7.81047653182431
H          -3.01032451303713    2.82897935786909    7.81050566421382
H          -7.45743612031182    1.41214726508726    9.63419154267919
H          -2.12030307183187    2.54092135168105   10.45320226851012
H          -8.21434055557690    2.98742285853614    4.38907534740123
H          -4.86543105920159    0.92443679138815    4.07354568398728
H          -1.10377917447311    2.86082178557029   -0.21573334988807
H          -1.95660491612490    1.62144004970010   -1.18574681958324
H          -0.33970242372006    1.28034176251033   -0.52136746605698
H          -3.45065003512585    3.11866023315660   -0.15602308137453
H          -4.95394952962188    4.42859168411607   -0.91387294252114
H          -7.25650761490582    6.58973076158829    1.17154190200790
H          -8.45139928671713    5.83891980990906    0.12788301580559
H          -7.82465932628850    7.43796706173197   -0.27339630522153
H          -5.57656048242870    5.76544994697562   -2.61209102245907
H          -5.57284503891754    7.36795753111624   -1.86379813524338
H          -7.61548971662811    7.80165333035605   -2.76338268258042
H          -8.07279239604216    4.90103604277669   -2.90789350586875
H          -9.78612521234646    7.35779143488140   -3.60762642728893
H         -10.37439498275716    4.33707717623849   -3.74866373590996
H         -12.80450215527765    3.85515968597473   -4.61524952385901
H         -14.90258725747010    5.10487993228013   -5.43033042918243
H         -16.52003733388102    6.74569751501021   -6.08725632232369
H         -17.77500521386160    8.91599113695998   -6.65907809221692
H         -17.52308160373799   11.37699961833132   -6.69336370290283
H         -13.99338147538586   11.99778149367854   -5.39753336820227
H         -13.08308133053565   14.23744887252527   -5.17890406308439
H         -14.43630510547640   16.22731462370629   -5.79720474783326
H         -19.78491743884243   17.23247110350740   -6.91815605075599
H         -19.15669527042653   17.15661515219868   -8.56315345300964
H         -18.27119523858043   18.06592447890926   -7.32296945924158
H         -20.74317249790173   14.92823728200726   -7.16413767154498
H         -20.22502848696720   13.37349501690557   -7.84336959059201
H         -20.11961882621147   14.85729852056972   -8.81059430208899
