119
 SCF done       -217.592622677384          0.000806429824
C          -0.91852803718507   -0.36788339531490   -1.84570336725248
C          -1.54328215293020   -1.32226351221623   -1.08497683740332
C          -1.19723214441196   -2.69055207572672   -1.09718341984157
N          -0.96709871998813   -3.81460272897670   -1.05896502355786
C          -2.58624537068483   -1.10880633501487   -0.15800603102874
N          -3.42379633263352   -1.04307120357744    0.62619813317299
C           0.21015682262226   -0.62070138720847   -2.73146336734051
C           0.68347055202477    0.61932851759908   -3.21903607054890
C           1.75062483369802    0.72342110474634   -4.07774923030257
C           2.38108976468097   -0.45824863541787   -4.47921018668375
C           1.89712453531474   -1.69621895264184   -3.99268460702679
C           0.81947855358978   -1.79952357067730   -3.12258678893724
S           2.81484727900178   -3.03195271960373   -4.62072200054041
C           3.82333846744268   -1.92401323914739   -5.51293168066792
C           3.49181902861825   -0.62107426084978   -5.35166152096457
Br          5.21751457260296   -2.59234526607023   -6.57471439913514
C          -0.13860895201297    1.71779881683055   -2.67295699709608
O           0.03948894880683    2.89534242601627   -2.90149824224006
C          -1.19429897226554    1.06568709381226   -1.85932067509468
C          -2.32496985291388    1.59651689129475   -1.30725460921145
C          -2.80860873265952    2.92949542786938   -1.11789205024238
C          -4.15199925653244    3.04747098294879   -0.69394158317533
C          -4.70035974777403    4.28311336644044   -0.47134465685007
C          -3.89884104176062    5.43581437007137   -0.59296531376177
C          -2.56993334746599    5.33589659859818   -0.98608587049382
C          -2.03675291772119    4.09499987324557   -1.25785041503139
C          -4.68766690324359    6.58650138788731   -0.22912385682203
C          -5.98430605446276    6.15730575710512    0.10838029833388
C          -6.09581032889585    4.64917510922745   -0.00367838619841
C          -7.18336376500074    4.32537183109784   -1.04861921748119
C          -7.39854510814529    2.84990839013605   -1.35946947347155
C          -6.32036887623286    3.97300509676491    1.36629629679339
C          -7.64572912970806    4.27284100613053    2.05385099593426
C          -6.94929739962483    7.08333451502573    0.42386460719051
C          -6.62314756372090    8.44813255931304    0.48437645914155
C          -5.31622749426634    8.85059566295596    0.17479877809175
C          -4.35540197581782    7.93512245514041   -0.19513209084011
C          -7.65419669531917    9.38503725440714    0.85818167932726
C          -7.46587653819091   10.65529165957415    1.26933582097055
C          -8.50713112590834   11.54583310750925    1.65011177923067
C          -8.35034707624839   12.80566640176733    2.20344119947817
C          -9.56467899811207   13.42034466777106    2.48461656681993
C         -10.66238436393193   12.63453837186393    2.13061339927017
S         -10.20016374484703   11.12244949159301    1.46362991693122
C         -11.84938919122016   13.33246395748653    2.44572562738553
C         -11.51407611394182   14.56263510403529    3.01967460945486
C         -10.02332128850632   14.71784050585108    3.08112802550852
C         -12.62427349648206   15.31471392003716    3.37626803976222
C         -13.81562510590322   14.67573688244087    3.06624313046773
S         -13.54349035186020   13.11081492379830    2.32227474179573
C         -15.15272551255832   15.11318019478484    3.25894753383818
C         -15.51222471236895   16.21803213063858    3.94536017647019
N         -16.82158590704827   16.60203666615832    4.07243443784623
C         -17.27917549937577   17.68012855714917    4.73101757700771
S         -16.20519254383241   18.72481246350674    5.60111189048321
C         -17.54876234667759   19.76555718064865    5.98491418390064
N         -17.27915571555749   20.88785751181474    6.76855322822173
O         -18.20815833311631   21.62158484552277    7.05455692311656
O         -16.11795982930924   21.04427791407979    7.11412217613115
C         -18.73687447441218   19.33868540950862    5.46186605392846
C         -18.61802363344138   18.13223200392943    4.74572907694039
C         -19.67010501881791   17.45187457958426    4.06469156891584
C         -20.86115475012376   17.99964962170020    3.71000783048038
C         -21.89549153368751   17.34169126960324    3.00477187717163
C         -21.91238718503010   16.19272937223596    2.25981590969491
C         -20.89965373773217   15.31452132075847    1.72803644318454
C         -19.60425162787126   15.63522898124495    1.38976367512564
C         -18.62649655476421   14.70428586744009    0.99500099204656
N         -17.74590520171238   13.99859386611593    0.77527225078728
C         -19.07873249870210   16.94002969400984    1.41251715268960
N         -18.58390092108484   17.97649765697335    1.40283358198998
C         -21.54453362259142   14.04976198283086    1.38625896203242
C         -22.94819602854192   14.21304386113767    1.49069865883057
C         -23.23901579132158   15.57663017073773    1.97780224193406
O         -24.32348024843889   16.08317356144429    2.15154330527225
C         -23.83361608473256   13.21447729508822    1.16885288634264
C         -23.30884504714299   11.99234485985615    0.73297959528131
C         -21.90518002491494   11.83460333611606    0.64487178435311
C         -21.00938649398108   12.84859854483703    0.96155798465017
S         -21.47392061738263   10.24623453952072    0.08837541095473
C         -23.16162557238522    9.82278280367868   -0.02343936568377
C         -24.00598525260602   10.81747666445486    0.34022898507448
Br        -23.64770216032717    8.10887757488674   -0.60945338025605
H           2.08696712683309    1.68665661774000   -4.42814821835672
H           0.48746092687052   -2.76720445889688   -2.78643390051304
H           4.00719285070908    0.19287045019137   -5.82793953711163
H          -3.02740019458658    0.85709420197361   -0.93772554544458
H          -4.72929948503532    2.14727983808632   -0.54478715119860
H          -1.95693806691935    6.22008461666120   -1.07283705872701
H          -1.01003463735939    4.01702590601187   -1.56956307535958
H          -6.91547701624472    4.84502559292712   -1.97284423550346
H          -8.12332487641551    4.75468741236979   -0.69838658217788
H          -6.52565724686697    2.42075443876711   -1.84288549150797
H          -8.24103439306696    2.74674112878954   -2.04040293375143
H          -7.62123332844604    2.28125405946913   -0.46081926110171
H          -5.50473057705748    4.28716541883183    2.02350416370129
H          -6.22665324455987    2.89463113898002    1.23029291669564
H          -7.72087069665938    5.32411357585434    2.31703131152645
H          -7.71038545774715    3.69279760045307    2.97210014424246
H          -8.49029872402752    4.00244677049890    1.42580209917232
H          -7.96524517161002    6.78489011095887    0.63471870649385
H          -5.06552786180303    9.89988479097389    0.19447566297956
H          -3.36088174253741    8.26100041828710   -0.46050144167276
H          -8.66811763120072    9.00290920775831    0.83381393820813
H          -6.46760232311540   11.06145383939302    1.36094688056740
H          -7.38378359952882   13.23703114873032    2.39344884818099
H          -9.66597400575153   14.84436294803465    4.10511528167057
H          -9.68132448857829   15.57752678349698    2.50107187262813
H         -12.58207942907604   16.28921981361752    3.82664623950823
H         -15.92149481983629   14.49674477088537    2.80984998456727
H         -14.79508143451270   16.85958796967826    4.43241531751688
H         -17.49815602331627   16.04045989453039    3.57000848761171
H         -19.65589844121306   19.87196303953356    5.62076549411243
H         -19.49770301037263   16.40710693055253    3.83964804169349
H         -21.07201688725566   19.01730313114146    4.00597828835809
H         -22.87904184490677   17.79451364489583    3.09950969675943
H         -24.89801187298270   13.37096107121518    1.24557844201665
H         -19.94832617770239   12.68035179341624    0.87741998983839
H         -25.07688080405332   10.72839387399675    0.33117887790639
