99
 SCF done       -189.482712270440          0.000573268554
C          -9.10344190581429    4.22550109960905    0.46089981233833
C          -9.22173569549837    3.32488134252582    1.50019336253035
C          -8.68283496507832    3.52329205420970    2.78164799543199
N          -8.24285627829505    3.59479834131904    3.84221786696217
C          -9.87029479681597    2.07846621632221    1.43994358675208
N         -10.37379890350543    1.04532906433455    1.49630702865125
C          -8.49357587971332    5.55015096569048    0.56807547338589
C          -8.58250855236167    6.18965637017769   -0.69171133507912
C          -8.09943222987924    7.45352778141849   -0.91710012031768
C          -7.49494064262856    8.12204089848173    0.15451909487695
C          -7.41386303173936    7.47768141049788    1.40954219365963
C          -7.90707741001582    6.19751920504599    1.63758429024077
S          -6.63021162826298    8.48113675549052    2.59357219313446
C          -6.42446522902407    9.73481526224225    1.39967897621831
C          -6.91677600103233    9.42096978226872    0.17825372200297
Br         -5.57733853223662   11.33958220680771    1.87803893694631
C          -9.24869912954922    5.27950400211514   -1.65080762560794
O          -9.48339534617801    5.52034587690912   -2.82001496751644
C          -9.54338227812301    4.05230516325518   -0.89259791751619
C         -10.09307968334986    2.90406168103749   -1.43906898567941
C         -10.47561797049925    2.75595558288867   -2.76259621785431
C         -10.95913418010407    1.56588420558836   -3.28048876915336
C         -11.34918753569231    1.32489342798423   -4.61423942597027
C         -11.76132609896120    0.04478185079173   -4.85535133655499
C         -11.71892788469519   -0.78498600075659   -3.71880291540246
S         -11.14190919017001    0.11289564861311   -2.32768019256493
C         -12.05316561911845   -2.12511456124980   -3.62818616374292
C         -12.49041183539560   -2.98595159747938   -4.65969386143954
C         -12.71944768370419   -4.26710056681399   -4.25914344909715
C         -12.48179935520671   -4.49155735274566   -2.88226745103674
S         -11.94958085585109   -2.98730180215799   -2.11574618850914
C         -12.61087295624139   -5.66355915112864   -2.19302257871828
N         -12.37271356547867   -5.76395820903888   -0.87098817766143
C         -12.45445338719031   -6.89699087088809   -0.08968793415345
C         -12.89481832899445   -8.12764881130879   -0.49605009254807
S         -12.94392190242796   -9.26487698322787    0.78467437562217
C         -12.35177707454758   -8.10014183581111    1.89355457112374
C         -12.11880672789251   -6.88584480076229    1.30966462631138
N         -11.67042689704045   -5.78617780067214    2.01865293889966
C         -10.81162843005615   -4.81089812969802    1.59685927787065
C         -10.43329257497768   -3.78483099262870    2.39849386858625
C          -9.54906539102098   -2.75913436508885    2.01284775168811
C          -9.14306242312306   -1.75941687816958    2.85585658593216
C          -8.25610606204936   -0.69110287401653    2.57603874061757
C          -8.03975941036740    0.14673991436845    3.62713804379257
C          -8.74142652016483   -0.21380188220336    4.79989832538056
S          -9.68461916088872   -1.65020523135483    4.52624487164981
C          -8.71641555175551    0.40963767484573    6.03556351888300
C          -8.07469334647567    1.61017894318666    6.39750625606457
C          -8.22164589931113    1.92991278108999    7.71725546830520
C          -8.97883037649815    0.99781574851867    8.45871654639244
S          -9.52181639931534   -0.29560060308838    7.42225620976472
C          -9.24236578585997    1.03550311473014    9.81793870217813
C         -10.00283558538142    0.07769165783856   10.47045977594286
C         -10.26434429059274   -0.04192539933896   11.82292726093940
C          -9.65518893412209    0.55488076309545   12.97499206023287
C          -8.37376657651563    1.05207986361407   13.08144538232139
C          -7.83976692122311    1.60307503668682   14.26046531318469
N          -7.35862558915143    2.08460986229685   15.18667981728975
C          -7.39696018254486    0.96279098470317   12.07215456972346
N          -6.53857665330658    0.87066766552786   11.31353301231685
C         -10.55637215893370    0.33900030755812   14.10971452205863
C         -11.59560870842998   -0.53165082348437   13.69962893470269
C         -11.42167854755732   -0.84279817705588   12.26274513000807
O         -12.10899210003078   -1.57819123903394   11.58293788421208
C         -12.57749762984095   -0.96452524916841   14.55463141154086
C         -12.53905511004668   -0.50856354852151   15.87776871790417
C         -11.50721270008146    0.37186448364179   16.27271552398388
C         -10.50763962353155    0.80505823008836   15.40796774669375
S         -11.65310173746972    0.81772474205642   17.94712244345023
C         -13.07656594982781   -0.17888615003885   18.09089142643105
C         -13.42843173021449   -0.80967190555302   16.94664723545391
Br        -13.96523820975084   -0.29185204388621   19.74027291075362
H          -8.18231288795811    7.91425059654107   -1.88897667400844
H          -7.82186982362530    5.75173214771455    2.61442176110558
H          -6.87447923563044   10.07637995395627   -0.67245281080766
H         -10.21886376090568    2.04240764982840   -0.79391603185876
H         -10.38213162933845    3.59632112730744   -3.43474482691565
H         -11.31068423583498    2.10262986653131   -5.35581681012397
H         -12.09123425892689   -0.31338582252352   -5.81399707932899
H         -12.61807402952259   -2.63648220729186   -5.66780428951367
H         -13.05249447521008   -5.05793202214978   -4.90720639451572
H         -12.90109896039688   -6.56149904143748   -2.71579006439014
H         -12.16879570020397   -4.89820814999064   -0.38492093150725
H         -13.21768563437113   -8.42892842828942   -1.47078915032076
H         -12.20516766087383   -8.36584898343010    2.92078959732037
H         -11.84596782304026   -5.81009490963669    3.01452766538709
H         -10.41046003704990   -4.90902977261321    0.59854365386906
H         -10.82501441164338   -3.73936091094139    3.40659757144363
H          -9.16791372237086   -2.75444845213665    1.00095563535184
H          -7.80851993228636   -0.57924418507806    1.60442732857146
H          -7.39837371378982    1.00879532622769    3.60046316000117
H          -7.55427233723608    2.21781282435290    5.68005847174059
H          -7.79950651640164    2.80265857504927    8.18217615800712
H          -8.83227842230445    1.87101091156637   10.36579188167838
H         -10.53537730167396   -0.63695150821931    9.84852854658139
H         -13.35135009358103   -1.63600569505806   14.21693419103217
H          -9.74292657759707    1.47901321635043   15.75661229039003
H         -14.27844337331842   -1.46126426741936   16.85660656451566
