110
 SCF done       -207.925468759732          0.000759814276
C          -5.67557650307891    3.73767695474941   -4.81801235036611
C          -5.54433019622518    2.54523385589354   -5.47598312371169
C          -4.60361754514985    2.30590831202960   -6.49467342903366
N          -3.82783858478550    2.05734019408428   -7.30355721283777
C          -6.39751786226327    1.44549078362521   -5.24655401223494
N          -7.11504737831270    0.55509452918716   -5.15187904456641
C          -5.06230967052824    5.00306559894696   -5.17851833224169
C          -5.70751019992477    6.04076928755624   -4.46033836706270
C          -5.38778274640340    7.36453787351211   -4.63812557355627
C          -4.37943096233225    7.67583738170101   -5.55676546456944
C          -3.72419035485935    6.62877668390980   -6.24869983678418
C          -4.04880180575740    5.29004536422901   -6.07444034871699
S          -2.50497929305461    7.24088231984632   -7.32683797971643
C          -2.88688867481983    8.87234904885211   -6.84205500727122
C          -3.87511978471815    8.95492620157999   -5.91982675678537
Br         -1.94441761760891   10.30645286373649   -7.59939735226680
C          -6.69519944942106    5.46242879494140   -3.52487532708837
O          -7.38767702888929    6.05656507392815   -2.73382778407043
C          -6.55739968564804    3.98580310752285   -3.69099935704853
C          -6.92653735740653    3.07768194508568   -2.75901667968536
C          -7.67847506297250    3.40552734213125   -1.56560588525567
C          -7.08378131905399    3.19316378239295   -0.35377382562494
S          -7.93595183462899    3.85392073091091    0.97576022780235
C          -9.20778930980889    4.36597917619274   -0.09192718371579
C          -8.96404292071156    4.04704587020939   -1.43627837359155
C          -9.96084423972907    4.31037185047860   -2.40416259114413
C          -9.76845678969571    3.79764724764231   -3.80575348603162
C          -9.81699823814441    2.26908303308049   -3.84175372401300
C         -11.13503816525695    4.95566285740748   -2.02860017337326
C         -12.16146718656135    5.32852282950623   -3.06536362789399
C         -13.12488603687228    4.17037263246390   -3.34100240967982
C         -11.37804931622324    5.27039338243051   -0.66849557166582
C         -12.51978785578926    5.89362021073992   -0.02387548514730
C         -12.30176953771570    6.10130071211426    1.31312775199967
S         -10.80401351115263    5.51220165694085    1.88797796165650
C         -10.38435832115355    4.99149904270530    0.28128837482606
C         -13.78679194703402    6.16700305103213   -0.63358847427321
C         -14.71187852140723    7.08501165257374   -0.26236918135328
C         -15.88857057989659    7.24627786772445   -1.04038511356478
C         -17.06481759180982    7.97318873902550   -0.81355302498544
N         -17.28502540318992    8.68083848953069    0.39510786105638
O         -16.55894665292688    8.43538407209117    1.34263264909462
O         -18.18304893389321    9.50116792027911    0.42880632282330
C         -18.00541973809607    7.91676999804588   -1.87185585627916
C         -19.33313055931761    8.58504310592745   -1.84576921269877
C         -17.54117593146947    7.15581565488844   -2.94309362623207
S         -15.94283467213731    6.53032865247074   -2.61383565831050
C         -18.19390455620192    6.82257827898037   -4.14476231698384
C         -17.64736207490000    6.14007982752466   -5.20421780436504
C         -18.33224129524865    5.65990963462076   -6.34988747031927
C         -17.55728351061548    4.94622142419231   -7.21508164118077
C         -16.20349478559729    4.85105774941994   -6.82328856370221
S         -15.95311001325012    5.69972336758014   -5.32030335235978
C         -15.15200205396692    4.18973172939751   -7.43645115257755
C         -15.18436772071604    3.31348903455961   -8.53935118083507
C         -13.96965196801686    2.76961723380710   -8.84392640005517
C         -12.91006430857521    3.21933866921625   -8.02348455329181
S         -13.51702125203148    4.32918168839857   -6.82273519077717
C         -11.57807055752442    2.86711328342859   -8.13451946151985
C         -10.54157068738583    3.47760964166340   -7.43442299428711
C          -9.19739565809193    3.20010964766640   -7.56880635950323
C          -8.54014875506670    2.07753052271900   -8.18797676822296
C          -8.98023356580127    0.77712450107162   -8.17758966330949
C          -8.26530183338837   -0.29453529388337   -8.74483665841215
N          -7.73039452814173   -1.18927664362921   -9.22623792793605
C         -10.16014090429812    0.37981303556208   -7.51708874794212
N         -11.10654377000337    0.03184457596979   -6.96800312199064
C          -7.23831288855742    2.54448220792410   -8.65667707914699
C          -7.02620969559871    3.85103355481641   -8.14719275721231
C          -8.17927360680041    4.23302009096151   -7.30264180742357
O          -8.26054907854577    5.19543728734277   -6.56382017792162
C          -5.92395568063158    4.59888588861475   -8.47749150392668
C          -4.96934271878536    4.01768117037624   -9.31988976903204
C          -5.17437650973605    2.69995995531430   -9.79351207587516
C          -6.30507112914838    1.95197690318775   -9.48136947916031
S          -3.86006626347017    2.16792764595689  -10.78954363442467
C          -3.05836995575733    3.69522460065614  -10.55672822258201
C          -3.74283671637573    4.56753057844425   -9.77902777029439
Br         -1.39605525759641    4.00721344265719  -11.36130674087163
H          -5.90197052307344    8.13693473699750   -4.08841929111222
H          -3.52043292386724    4.52224990610536   -6.61539991142772
H          -4.23587644964688    9.88066247400520   -5.51030785635846
H          -6.51831712820479    2.07378153022147   -2.81170268144457
H          -6.12329457689724    2.74382442169011   -0.18574722977841
H          -8.82257577319995    4.14972393207139   -4.21383043317126
H         -10.54608864513055    4.17127071591690   -4.46358318809548
H          -8.99244255818135    1.82690191464546   -3.28906738165106
H          -9.75930918045519    1.91445350849161   -4.86843376099914
H         -10.74655029962884    1.90833417880025   -3.40719836002310
H         -11.67002956008335    5.62091282106167   -3.99292799628016
H         -12.70610132850435    6.20977001591601   -2.72777292946370
H         -12.63081838890722    3.38837018850151   -3.91024017182608
H         -13.98105148076152    4.51924063400469   -3.91187303431190
H         -13.47853408610261    3.72548539509651   -2.41298921755887
H         -12.99993301034264    6.51906287240730    2.01224018138036
H         -14.05279401729806    5.52863193135437   -1.46128228863251
H         -14.58301354789512    7.72209994804222    0.59893898413012
H         -19.83557831004680    8.39834014979110   -0.89835091578196
H         -19.96488413486395    8.24302287835119   -2.65957075256688
H         -19.20843111537729    9.66477358445533   -1.92478096025968
H         -19.23390333693427    7.10340031073355   -4.23915574432115
H         -19.38461467945783    5.83728627367855   -6.48583510175733
H         -17.91999902863865    4.49930172749127   -8.12315274345370
H         -16.09636816468691    3.09104245235581   -9.06358992949121
H         -13.80091784464136    2.06548805643816   -9.63897185444439
H         -11.34301033841777    2.11705664191763   -8.87690223545335
H         -10.78662689583008    4.34944400296682   -6.83718814649622
H          -5.80454525109488    5.60447659805655   -8.10565132988282
H          -6.43241545731838    0.95912711107804   -9.88039608952410
H          -3.39279578840451    5.55381611627757   -9.53366060999098
