99
 SCF done       -187.350842437300          0.000985944165
C           1.33758142468679    0.31047411198048    5.49949858014544
C           2.01458797166577   -0.87980352450866    5.58626340888741
C           2.53943602512079   -1.57443212970693    4.47752392492920
N           2.98340351728843   -2.18196144756402    3.61057707320237
C           2.21532068685841   -1.59113647364865    6.78710632817530
N           2.36786004846555   -2.23813514051246    7.72335671617688
C           0.96895480855104    0.99662504240774    4.26735940082678
C           0.13468883663837    2.09399970331253    4.59329046092926
C          -0.38596516436681    2.93338079681332    3.64023256111127
C          -0.07949670852950    2.67110944741762    2.29978211927440
C           0.75574305975870    1.57319039893005    1.98430175683726
C           1.29056955618103    0.72923403097034    2.95032299946845
S           1.01391243830720    1.43705789763191    0.27163129694187
C           0.00862877204061    2.83592188577961    0.00493193849911
C          -0.49569000870183    3.37847034219351    1.13979443363023
Br         -0.28475173666248    3.44663225317520   -1.74409930033665
C          -0.03045072047755    2.16700000160242    6.05879766656725
O          -0.57576649404377    3.06266301567686    6.67893641282338
C           0.74253291262280    1.03085617106442    6.60212150173894
C           0.96289130466626    0.81670862799884    7.94010488772003
C           0.15934146209051    1.35089356376399    8.96695679011371
O           0.72258649024086    1.59921492131638   10.19308582524450
C          -0.16461202453494    2.19938789581039   10.95613189296582
C          -1.36573640870218    2.33804844475446   10.29483354323743
N          -2.54371153219022    2.93630044840135   10.78164180799805
O          -2.54870061266627    3.33683540781587   11.92397125859564
O          -3.48871403380633    3.00388966419756   10.01038186645771
C          -1.18787241826975    1.75129058137314    8.99808803851142
N          -2.16615690552603    1.56022873646321    8.09868381605888
C          -2.10401601419896    0.68429208428445    7.03567602756429
C          -2.74397243179238    0.89719855767712    5.87807474811550
C          -3.53334178723157    2.14818911176942    5.65483226367320
C          -2.71678242763736   -0.13595287782550    4.78157591221428
N          -3.88455532310488   -0.98740382159192    4.83145752241352
C          -3.88772650858498   -2.18262214444984    5.47648437617157
C          -5.00281327173862   -2.83368552290313    5.87207111148500
C          -5.01939872973387   -4.14155325355993    6.43099683148149
C          -3.97619093038328   -5.03795553183060    6.61551609384861
C          -4.39673720370767   -6.23154430117679    7.18348207484476
C          -5.76831118795681   -6.25972049978054    7.44503018540421
S          -6.54704586658951   -4.79933444855691    6.97857824219791
C          -6.10526233406268   -7.50184710477327    8.01359400158580
C          -4.94452115408422   -8.28291967251161    8.12494269820473
C          -3.74766168057616   -7.53442596776912    7.58664003670957
C          -3.15256139290180   -8.25332391853072    6.37224867627315
C          -2.68440838479228   -7.32128044550765    8.66721170086695
C          -5.18356030232010   -9.51352650040031    8.69566832468138
C          -6.53083289244281   -9.71786884477217    9.00351191494788
S          -7.49781081263743   -8.30035865014269    8.59944829054361
C          -7.04239719617945  -10.84400110027205    9.66340061363346
C          -8.33740554515285  -11.22365697651412    9.89704376684930
C          -8.63276206780011  -12.11372532914205   11.04470333566315
O          -7.83602809158040  -12.75337998431129   11.69708815541820
C         -10.09079918755360  -11.99891107878266   11.25737849979602
C         -10.85760345422553  -12.51729437568586   12.25931010376563
C         -12.24427282783603  -12.24320448782385   12.27828257262158
C         -12.80957596734035  -11.43084870297922   11.25303974269717
C         -14.19038297573483  -11.15563834411933   11.28401917846457
C         -14.95606508460886  -11.67369468956770   12.29098359293178
C         -14.41981569603673  -12.47563274460815   13.30679022350929
C         -13.08076536212051  -12.75195036275333   13.29233666899390
F         -16.27716820636972  -11.41128400777906   12.32151866731397
C         -11.99116008578541  -10.91512308694664   10.22002820357191
C         -10.65360287277096  -11.19923261108820   10.22132912881851
C          -9.58643277345904  -10.84441142363105    9.28778111888466
C          -9.77177853554717  -10.49494361912335    7.97220621552524
C          -8.72592683535057  -10.49241260864045    7.02860031677420
N          -7.90456176363681  -10.54006831801183    6.22704589654103
C         -11.02881786112830  -10.21815844526507    7.40434431339576
N         -12.03009898580383   -9.96227437820540    6.90356196471834
H          -1.00933537127212    3.76932424377623    3.91555293229431
H           1.93338961396936   -0.08597786756473    2.66295813196356
H          -1.13130197873758    4.24480580851157    1.15798755832634
H           1.83218710091924    0.26158304636627    8.26653774735837
H           0.11942820345892    2.50370361904420   11.94568190728242
H          -2.99128511716052    2.14278945591809    8.22274114141632
H          -1.49812139255496   -0.19569056233653    7.20225739412952
H          -2.90150962655280    3.01221032137664    5.86713950937702
H          -4.39564245367721    2.20068678047854    6.32055861913027
H          -3.88517936053390    2.21225201992238    4.62892242198451
H          -1.83237067305039   -0.77091481691712    4.87173471698653
H          -2.68800827727907    0.36195229779190    3.80606136044994
H          -4.77362486369425   -0.51067702049388    4.77335336551466
H          -2.91118992963855   -2.62688644773150    5.60308170825920
H          -5.96449334211286   -2.35384451265865    5.75267554891388
H          -2.96225913247902   -4.82240670184976    6.33338955928524
H          -3.91912822955926   -8.41659501486095    5.61848791540831
H          -2.74861259529250   -9.21706162685531    6.67133903648539
H          -2.35445544701870   -7.65622117850968    5.93792042854227
H          -3.11413477405728   -6.80898796782334    9.52518818007838
H          -1.86756940552909   -6.72058785327681    8.27485575859219
H          -2.28899639295074   -8.27914633782956    8.99518443647599
H          -4.44181203620235  -10.27032227685569    8.87774316585607
H          -6.29744829903505  -11.46357844672910   10.15539661222871
H         -10.41357566748749  -13.12924924946052   13.03017844240156
H         -14.63842485433664  -10.54477278324535   10.51591478960871
H         -15.07282279492406  -12.85654418208294   14.07597519077654
H         -12.64365971714676  -13.36742547646386   14.06434443002332
H         -12.44178572304943  -10.29833151478967    9.45833566799720
