111
 SCF done       -215.565026988443          0.000870102698
C          -2.75454517566756    9.27269909133723   -6.68564907412086
C          -2.04608101045004    8.28263847321460   -7.32279550103677
C          -1.01819210418834    8.52013319738847   -8.25738340213736
N          -0.17583633923547    8.64138010743604   -9.02931484636197
C          -2.23207547293525    6.89549367105411   -7.15596953132437
N          -2.31310898439804    5.75110124689807   -7.08941426397738
C          -2.55314340980965   10.70591679660970   -6.88584220960718
C          -3.48384312555974   11.41150909288269   -6.08626387816964
C          -3.54612144531536   12.78269730872285   -6.05594445647581
C          -2.64454748666052   13.49538402093495   -6.85390572631274
C          -1.71717222819769   12.78246377420504   -7.64837020420899
C          -1.65465580299858   11.39457248141386   -7.67896240195913
S          -0.69454814147182   13.85604098293806   -8.55634124784995
C          -1.51762013945549   15.22867612616253   -7.86486710685042
C          -2.50600533943111   14.90342541933995   -6.99897251294397
Br         -0.99369901531174   16.96342183840539   -8.35147863790713
C          -4.31691698455005   10.44546761493564   -5.33749906261253
O          -5.21412114390610   10.72489369238497   -4.56757101391640
C          -3.82305884728442    9.10788554498072   -5.72610341378656
C          -4.30318500513261    7.91916461345342   -5.23144959632207
C          -5.34584480945669    7.78866338084131   -4.30178160326041
C          -5.74298225424954    6.56121764459785   -3.84844134668976
C          -6.77251034475091    6.34804167616524   -2.91889570429553
O          -7.49948761735724    7.36886787038769   -2.38963911663111
C          -8.40021994121151    6.85015002067939   -1.52248160613649
C          -8.25766807045338    5.46131137973334   -1.48808639009600
C          -7.22369289007881    5.13688854873863   -2.37826994078224
O          -6.74316192973058    3.91647999146174   -2.66979412364939
O          -8.94969605287811    4.53804193662524   -0.76694290131769
C          -9.30836031609841    7.67165385038823   -0.81385871714207
C          -9.41940679154391    9.01657063978434   -0.99259836179106
C         -10.31820777381617    9.87352601250211   -0.30670719952355
C         -11.03424161369666    9.54098363520487    0.80394807509828
C         -11.96803682546254   10.35756354374078    1.49046108466938
C         -12.47028963278610   11.54794363883746    1.06295293968225
C         -13.42906206385172   12.28576515120035    1.79374761616764
O         -13.95752411177703   13.41803339121727    1.26121383816446
C         -14.88153053792583   13.92505148974321    2.12334472933870
C         -14.91972803640263   13.11305085111105    3.25694335319703
C         -14.00467087732488   12.06756925566796    3.04645589147780
O         -13.74403579176674   11.05781755129767    3.90409640578559
O         -15.63278517174030   13.22731731559801    4.40912527176230
C         -15.58766309468531   15.09139137191975    1.74310410360591
C         -16.69394732495364   15.58892395236587    2.36265761674838
C         -17.40854136239853   16.75691606908055    1.99667779394524
C         -17.09374725994446   17.65202485207654    1.01812253190703
C         -17.90004521534335   18.77805935464144    0.74864408276970
C         -17.63128940700423   19.71261890685031   -0.20440308120625
C         -18.46224946051046   20.82874078633742   -0.44356122324551
O         -19.60774227937611   21.01433446334881    0.25707359077903
C         -20.19459831723841   22.16594155098904   -0.16641414046307
C         -19.40107816117989   22.73235304078009   -1.16946978975286
C         -18.30050923187775   21.88094360153478   -1.34913318863728
O         -17.27773486428657   22.03054094119327   -2.21586763105765
O         -19.59346665342465   23.87522013783350   -1.87599574348927
C         -21.40779027896387   22.60426404630929    0.39722614149544
C         -22.07998941786725   21.91634117745023    1.36775771254412
C         -23.28192116705031   22.35078046333140    1.94827556001436
C         -23.93278130115888   21.65058733673149    2.92844170010597
C         -25.12948155787583   22.08942566921031    3.51094696780077
C         -25.83806177986991   21.50592904811663    4.53126351142455
C         -25.51650228044220   20.43758633838006    5.44314604934571
C         -24.26961718308372   20.06822602952325    5.88847749327727
C         -24.03813093574211   19.01911457365064    6.79946486087358
N         -23.78140839099413   18.15853858704910    7.51599036937388
C         -23.07283459264302   20.74830349225436    5.58616406183000
N         -22.06764987481522   21.28168075067444    5.42976904181778
C         -26.77688018417312   19.94490099550253    5.99806267167461
C         -27.81815737738978   20.82342485166386    5.60797082684687
C         -27.26035053790473   21.87103072494335    4.72591569224832
O         -27.84846830635067   22.80649135441188    4.22773632022436
C         -29.11940700483653   20.65049928245957    6.01015862364688
C         -29.41019251317901   19.55189428659714    6.82700415389689
C         -28.36658800245461   18.67278840890930    7.19818399954230
C         -27.04738989241370   18.85236609196261    6.79841941956587
S         -28.94826142015887   17.37605950002522    8.19868993326086
C         -30.56315785609474   18.02797420750572    8.11030736328683
C         -30.66433455535959   19.15586200405913    7.36866137147968
Br        -31.96313904557283   17.15451739561325    9.00320764701917
H          -4.26750892316753   13.29070434604905   -5.43521861860602
H          -0.92801382829960   10.89999550731880   -8.30124126306562
H          -3.11352391353505   15.62428939480262   -6.48288244954163
H          -3.84713321611962    6.99864109942847   -5.57268765555489
H          -5.83823756312218    8.67706032962843   -3.93696179208903
H          -5.25281647435324    5.66303382769450   -4.19971104699307
H          -7.23521326681464    3.26094427864378   -2.15740445936715
H          -9.62266577425277    4.97636839193080   -0.23551543826006
H          -9.95204452163534    7.16052939274982   -0.11095488468610
H          -8.78576775384051    9.46829250306905   -1.74333885537512
H         -10.40447729080235   10.87645923797623   -0.69977666156341
H         -10.87311660725472    8.56569635927965    1.24355075612305
H         -12.33442679166168    9.97578730405119    2.43235523774342
H         -12.17924254062631   11.97745290302827    0.11590856990516
H         -14.28626286326351   11.19503650866244    4.69331096523690
H         -16.04544698707278   14.09647063268794    4.45707589015855
H         -15.20379162253063   15.57456286636441    0.85671803881310
H         -17.12111091651048   15.04022236715344    3.19225902875576
H         -18.30526061006865   16.95195027537978    2.57200399369156
H         -16.20444764933666   17.52046422761111    0.41865164004891
H         -18.79241277023191   18.90583756330052    1.34700566092363
H         -16.75162373004192   19.64520013020490   -0.82675615163556
H         -17.41719118877006   22.84806019222668   -2.71153307601420
H         -20.39969693161644   24.31293810179652   -1.58249106480031
H         -21.81139063116462   23.53841936602886    0.02757205431329
H         -21.65516817474698   20.98688573496095    1.71886840683200
H         -23.69536366730475   23.29595241261045    1.61837924507300
H         -23.51071095491979   20.70817133278224    3.24544372663755
H         -25.61490755650761   22.94922259558376    3.05987408506528
H         -29.89071507932844   21.34029784880406    5.70544224415905
H         -26.28741871675667   18.15242267945422    7.10368958522804
H         -31.58397273917813   19.68833077520071    7.20819376709892
