88
 SCF done       -188.295322238085          0.000497679001
C         -20.02939958253198   -7.07592483613427    1.50647026386900
C         -18.92839710220011   -7.79411318098722    1.91720451452285
C         -19.01155693062079   -8.97668768370885    2.68477083267700
N         -19.02314065791974   -9.93695703718255    3.31365124690213
C         -17.57375221293458   -7.51212787935409    1.67445268390124
N         -16.43192436836194   -7.41497754257224    1.55824958062518
C         -21.41717242316238   -7.44021872569448    1.79276565092618
C         -22.26950453158718   -6.46699060709787    1.21633992197927
C         -23.63782300052203   -6.52453612662115    1.30920265031995
C         -24.19949136020319   -7.59982084285672    2.00617942804373
C         -23.34279845522394   -8.56944388767185    2.57765078083387
C         -21.95695645365823   -8.50875824773520    2.48355682428492
S         -24.24103894627192   -9.81479878085690    3.39085157940131
C         -25.73418491520759   -9.02566646492678    2.95800279264296
C         -25.57130267596939   -7.88811873394499    2.24123151456090
Br        -27.36753213239646   -9.77765111016133    3.49068228756193
C         -21.45153652295959   -5.44374423573815    0.53699012880276
O         -21.87070711080180   -4.47062266396523   -0.05834768693270
C         -20.04619725448214   -5.85703814558185    0.73930576489280
C         -18.95564585801229   -5.15761848825786    0.26347940592106
C         -19.04105161688851   -3.97601849047256   -0.46959424124135
C         -17.93609749934472   -3.28288442178162   -0.92378080631063
C         -17.92648304235400   -2.07690969211579   -1.66261004167774
C         -16.67641227945470   -1.61490109006879   -1.96435397554580
C         -15.64225582698331   -2.43743764159065   -1.47748236477922
S         -16.30024910898014   -3.81752692404978   -0.62777289526151
C         -14.26551943959297   -2.30474503357171   -1.56868011857040
C         -13.45878987168154   -1.31155484672001   -2.16238570682713
C         -12.11985825566075   -1.53996154823175   -2.02041950866655
C         -11.80156297209337   -2.72335060266400   -1.30934955623915
S         -13.27461083480406   -3.53742898022407   -0.83555439636648
C         -10.55734908904607   -3.21799690645324   -0.99062975377177
C         -10.32794628913213   -4.39982597448583   -0.27733358223583
S         -11.60926242637164   -5.45362345136604    0.29570952017769
C         -10.53616778374702   -6.60348764054072    1.03326733686243
C          -9.21370493855411   -6.19079590884689    0.84446322542795
C          -9.12068706418159   -4.97281576471716    0.11732152975400
O          -7.83913622351197   -4.60412763038610   -0.04385933554037
C          -7.10622322479296   -5.57164064811798    0.56910498811132
N          -5.69486334540653   -5.43777430770333    0.56200417869538
O          -5.06873332923852   -6.31870186455304    1.11767556304380
O          -5.22167063236219   -4.46794400816006    0.01318527944932
C          -7.87495657331060   -6.56071304787799    1.12617363066829
C         -11.08872877123553   -7.73326813077068    1.67495242105997
S         -12.81211573087440   -7.95047253352900    1.68167966152482
C         -12.67383435683573   -9.45041972571229    2.53463882128090
C         -13.87805462225610  -10.19664340432578    2.93620540679217
O         -13.81663648467541  -11.26067440338896    3.50662289553126
O         -15.06158308530278   -9.66405291302248    2.64149987977461
C         -11.34141353221848   -9.75415744326710    2.80547055069381
C         -10.45958086110756   -8.76347273769042    2.33995642784073
C         -10.83891669153595  -10.91626889179405    3.50925271355849
C         -11.17344716408534  -12.20632119703049    3.34947685213854
C         -12.07519229805311  -12.86491019842530    2.41336652611081
C         -12.29727903114939  -12.50670338530070    1.11456193780326
C         -13.11965102092926  -13.23703985570479    0.22967364566589
N         -13.77320088290820  -13.79457279086299   -0.53051753458315
C         -11.68157653788646  -11.40664443966265    0.48408424349780
N         -11.18073680638315  -10.55089135052122   -0.09508274541661
C         -12.51690002110526  -14.09231582773553    3.05387037092296
C         -11.72345969164210  -14.32412143514751    4.20791352682553
C         -10.77547137001944  -13.21103164097554    4.38475762878676
O          -9.89858964551825  -13.09040954164812    5.20480145983317
C         -11.89426527469844  -15.42868758062274    5.00830555142941
C         -12.89738867349399  -16.33805073854149    4.65962499025051
C         -13.69511497702784  -16.08689592886822    3.51543132444149
C         -13.51993254240986  -14.97573821987847    2.70171081125197
S         -14.88376686897539  -17.33064240927401    3.28101730402665
C         -14.29821757378292  -18.16382984610090    4.69631040986102
C         -13.26771934248232  -17.54242469652865    5.31783885181421
Br        -15.10130751816407  -19.77348631341268    5.22088693095549
H         -24.25591613695804   -5.76440102783922    0.85773611746644
H         -21.35353876832556   -9.27570803094644    2.93820492446031
H         -26.38353080191057   -7.27716262092146    1.89187943667177
H         -17.96304760820513   -5.54370086094507    0.47113147943524
H         -20.01843694573410   -3.57357116373563   -0.69372416121856
H         -18.84183690128036   -1.58860885279004   -1.94576344635803
H         -16.47699827569077   -0.71443924265750   -2.51730300206950
H         -13.87838880746587   -0.46197997908551   -2.67046459407622
H         -11.35024068500544   -0.89367073979369   -2.40371159839550
H          -9.68277953854659   -2.66374432090485   -1.30238754545959
H          -7.50227628842175   -7.41545938384951    1.65071024400392
H         -15.06685988385528   -8.79477829180930    2.19737570603501
H          -9.39371488725878   -8.82872742097883    2.45339262294672
H         -10.09941133002215  -10.70859153805194    4.27677678911898
H         -11.27626772928367  -15.58479610165610    5.87861765864465
H         -14.15844746691818  -14.81304290303234    1.84927081574839
H         -12.78809240607519  -17.91575829536293    6.20417855451724
