95
 SCF done       -197.220342034825          0.000696203623
C          -7.20371318047556    4.83112895412983    3.44774144111147
C          -6.38253207856699    3.93736186827212    2.79939082730564
C          -4.97838496153101    4.04483868616925    2.75372411456590
N          -3.83235695343483    4.07282297945857    2.68136934272275
C          -6.80622579886194    2.79017603302163    2.09934165263351
N          -7.06622029319619    1.83575137662995    1.51419815950992
C          -6.74783502170941    6.00861814284960    4.18449092471542
C          -7.87763846737559    6.67723970534125    4.71544226758159
C          -7.77722547618652    7.81850397722299    5.47180082172067
C          -6.49721739845038    8.32672676790603    5.71939857172023
C          -5.37447298082802    7.65397563508885    5.18377540696269
C          -5.47729152858864    6.49918650598595    4.41648789711684
S          -3.88923213055587    8.44832581038348    5.61177462235365
C          -4.78546918785601    9.65435080581554    6.49644719220706
C          -6.12738991332506    9.47581760116418    6.47085295446502
Br         -3.86483699246201   11.03715514333047    7.36788599586578
C          -9.10185911756545    5.94476464722716    4.33195397530568
O         -10.24243580651088    6.25044282732038    4.62150195028412
C          -8.64060228804482    4.78263924772915    3.54519073425732
C          -9.47068710580146    3.80519360284972    3.03386567663294
C         -10.85148896982684    3.76886589934169    3.19913094293450
C         -11.63666082441179    2.72055974522846    2.75679014558863
C         -13.02220314859469    2.55942687048111    2.97509656037583
C         -13.52457908039686    1.37540605673363    2.51598493819955
C         -12.55919910638788    0.55751128717635    1.89568705997850
S         -10.99742047395140    1.33970577920905    1.89330247282958
C         -12.73537106489548   -0.72609992455125    1.39666454978632
C         -13.87273759216086   -1.54770141467673    1.50493052742930
C         -13.69017832501576   -2.81191661962185    1.02220749291153
C         -12.41362141509737   -3.04682141902415    0.46506223240129
S         -11.43647858265135   -1.58872766933681    0.60822969320744
C         -11.97873654237753   -4.27438046876067    0.00506598837920
C         -10.82325166600305   -4.64887035318237   -0.68928539864921
S         -10.33318173777894   -6.32457407848528   -0.58080399143387
C          -9.01714282646923   -6.10335040193841   -1.69381732093831
C          -8.99564816862348   -4.76936124328114   -2.14154214909978
C          -9.97761636033007   -3.95061975473899   -1.58064771613129
O         -10.12560878321131   -2.68259172787721   -1.96651080277175
C          -7.97550990404189   -4.31117171355345   -3.13337109800586
F          -6.71645954140731   -4.53675352866556   -2.69835804682848
F          -8.07251444316645   -4.99013496781170   -4.30018021835917
F          -8.04267110845276   -3.02212707094171   -3.44304862226735
C          -8.14598368316924   -7.12729472830100   -2.06101532504588
C          -8.04311368143882   -8.37090450093180   -1.46901348063082
C          -7.16235016938828   -9.40313219201179   -1.86403635977385
C          -7.18364266802511  -10.49945135573489   -1.04974174543452
C          -8.07226325417973  -10.37645277599536    0.03650186348339
S          -8.92506480593324   -8.85380404916391   -0.03999502256454
C          -8.26108576653803  -11.24492852476821    1.10320177627966
C          -7.66734519416396  -12.50353240867452    1.32443270238481
C          -8.00561458057362  -13.06450410104059    2.52336809759766
C          -8.87229131309568  -12.27048345679522    3.30621035229774
S          -9.28609587300454  -10.80656070722336    2.44658743280881
C          -9.32773825117808  -12.54893533046323    4.58208370852401
C         -10.11560041309824  -11.66472986459583    5.31099290279339
C         -10.60131620680250  -11.78851438196673    6.59426856767063
C         -10.67977755224139  -12.89479924575407    7.50851916233650
C         -10.75952864117762  -14.23178961866061    7.19391689485832
C         -10.87492025940887  -15.25836466869697    8.15132329432036
N         -10.94962109457698  -16.13717865399376    8.88716335904131
C         -10.84979408184254  -14.73855848942431    5.88286570863873
N         -10.97237437386418  -15.20892958772023    4.84197577308475
C         -10.87689478465417  -12.33933480774681    8.84847831288776
C         -11.11860570014805  -10.94768584145315    8.73154312538779
C         -11.02142600837414  -10.56024573395275    7.30955492231261
O         -11.20374426174951   -9.46352873458700    6.82650955101091
C         -11.37138013681617  -10.14714199575572    9.81771857850321
C         -11.37573018814063  -10.74572611793766   11.08265683709187
C         -11.12101555409157  -12.13274439313073   11.19039636868745
C         -10.87269279436926  -12.94502648516260   10.08919196592928
S         -11.16213269337538  -12.66330688515046   12.84433827169379
C         -11.52030396579400  -11.03672489772035   13.36124405243085
C         -11.60311471561262  -10.14098798581787   12.34943339008908
Br        -11.74860816868136  -10.67476306156966   15.18751339757591
H          -8.65781608876834    8.30280561246537    5.86387279193318
H          -4.58986805115826    6.02479701040293    4.03272681860262
H          -6.82895073349977   10.12538468677966    6.96170123945635
H          -9.02347894019352    2.98596129537465    2.48448469458575
H         -11.33701524766869    4.57361054048075    3.73232528214887
H         -13.60011925745300    3.31293437733518    3.47951620234527
H         -14.55395348228268    1.07902948678121    2.60655626547437
H         -14.78263053899650   -1.20220591013930    1.96030375955263
H         -14.44076370946414   -3.58172084840451    1.04209865907123
H         -12.62000220468579   -5.10545018155388    0.27598952319836
H         -10.78952651684370   -2.21415810320292   -1.44257524816968
H          -7.45538154461634   -6.92581376693785   -2.86789087985807
H          -6.53393467690680   -9.30103161548157   -2.73066501764205
H          -6.56867735839356  -11.36958794145932   -1.19099146965767
H          -7.00944959820348  -12.95939565292780    0.60681256473540
H          -7.65404573374997  -14.01938765462767    2.87096054379900
H          -8.99763213412517  -13.47768401392452    5.02250194776830
H         -10.30299430354508  -10.69285452325691    4.86157181335065
H         -11.55823470795509   -9.09158333056418    9.69747475695408
H         -10.67837270704957  -13.99614418332735   10.22332436994469
H         -11.81480528387376   -9.09647330288934   12.48805117719486
