120
 SCF done       -220.519884835958          0.000713390737
C         -17.40915394127119    6.59304988377649    5.85414115867153
C         -17.33894415142636    5.44132698728823    6.59194595912355
C         -18.20175243788849    5.13474902510332    7.66623434872210
N         -18.86841547640816    4.82933648817718    8.54914905731897
C         -16.42044599979565    4.38985924490497    6.38717763707297
N         -15.71941906571215    3.48690497668139    6.27771299072872
C         -18.37908594518241    7.66317475638416    6.05013105607066
C         -18.16144966951466    8.66442864178489    5.07282225218302
C         -18.92827500718284    9.80126082930940    4.98880269985420
C         -19.95624071670684    9.96506363377005    5.92193586494164
C         -20.16592404195235    8.96156858078114    6.89884028259894
C         -19.39508835617484    7.80918359714576    6.97852715923837
S         -21.48824770036188    9.36336705412521    7.95239914839858
C         -21.73609786918502   10.85275731598038    7.08005755104336
C         -20.87525207861571   11.04159985062984    6.05162764844357
Br        -23.10811178287659   12.01693527378684    7.60767739762644
C         -17.02759824244986    8.27940731185878    4.21047914064007
O         -16.63673166776657    8.87858644136909    3.23385853520623
C         -16.54118785826610    6.97815858302627    4.74877560586908
C         -15.54220916171696    6.23768724277554    4.20608889512705
C         -14.62027688447453    6.70665973314700    3.19690126182343
C         -14.02314385177796    7.97168463290144    3.33087413689048
C         -13.12565095214750    8.46022353562665    2.41085569174504
C         -12.79495918016932    7.71513369054463    1.28036491086655
C         -13.35545947128998    6.47045045855107    1.13194495041686
C         -14.24010059250921    5.94284984172689    2.08765219917601
N         -14.67862036659312    4.70124022115807    1.67433945598618
C         -15.56602934346899    3.80788193728664    2.36752768737325
C         -14.11284986381756    4.33949804701609    0.47426101017255
O         -14.35017044061148    3.32035421113828   -0.12316282827227
C         -13.16028167613971    5.45213674095192    0.05329747590305
C         -11.71696229333373    4.90755055542419    0.02878045452565
C         -11.28798323155443    4.58861236755562    1.46286854353368
O         -11.83065637438361    3.83578961813135    2.23750622346742
N         -10.19039175381710    5.34887771012105    1.74812880044712
C          -9.53866984707302    5.34673358136168    3.02886861854598
C          -9.84241230673382    6.16477690042070    0.67970734897461
C          -8.84211381077573    7.10855002222293    0.61127675324384
C          -8.71382303584661    7.86056246970999   -0.56533917890984
C          -9.58828886270756    7.61919081509843   -1.63107531444902
C         -10.58025913341493    6.65444030207714   -1.55738911428997
C         -10.71252097912889    5.93015971039079   -0.39264101794591
C          -7.73228273872617    8.91398601923343   -0.69562127795597
C          -6.63974966383106    9.08828351822280    0.07171046010057
C          -5.73536928655946   10.18079631817266   -0.05203757558011
S          -6.07378381068313   11.52694601962449   -1.12639459894198
C          -4.63359071055549   12.30604597942357   -0.61620219477053
C          -3.92245221217572   11.56141697802016    0.32044282373639
C          -4.55135533884833   10.36275658614255    0.64039328925250
C          -2.66613518719151   12.28980922649778    0.73971118568448
C          -2.66883283304137   12.59211145135205    2.24041783315959
C          -1.41101763423543   11.50498157959738    0.34792867696866
C          -2.79644956079326   13.55626860183268   -0.07512860175750
C          -3.95179047803858   13.52259781533005   -0.85394715582807
S          -4.16055362338672   14.94944744863124   -1.77924036843971
C          -2.68133906312824   15.61406182493433   -1.10658772776371
C          -2.07901044929046   14.73708396184277   -0.22107531972782
C          -2.32122959189700   16.94253019528284   -1.46420771920632
C          -1.29146295562047   17.63510519431513   -0.94049903606800
C          -0.97294175869039   19.00416087628404   -1.28278613844608
C           0.37087332879657   19.37514040558814   -1.40078505647150
C           1.59409117845076   18.59445980048881   -1.12840336246102
O           1.71031397613784   17.47144584457122   -0.71853385076968
O           2.66300660494345   19.38163403756580   -1.40465649709410
C           2.26125452532462   20.66188755198553   -1.86321601876549
C           0.76695924652230   20.63243524714120   -1.84413126690563
C          -0.16776046544302   21.58551566503681   -2.19483702927985
C          -1.50393113764740   21.25700270565267   -2.03566172329665
C          -1.92627992086361   20.01364081808213   -1.55449018464804
C          -3.35142243834149   19.85262178460437   -1.30414964703163
C          -3.87705178014539   19.18354501240436   -0.26451089092014
C          -5.28097560187330   19.03133400723926   -0.05507425514778
S          -5.90102024767185   17.99075283587107    1.20468614611554
C          -7.54522878581735   18.26972011347013    0.80751525723923
C          -7.64015931018464   19.13123613627649   -0.25730923315901
C          -6.35657705326443   19.54960682301403   -0.73689692499356
O          -6.49034899484156   20.39960935899769   -1.78081734657904
C          -7.83311400618674   20.52602181550311   -1.96730895816741
N          -8.26755288668476   21.38119353307542   -3.00934547387539
O          -9.46982709261619   21.47882191462548   -3.16484236803470
O          -7.42126314554450   21.94796163397699   -3.66619156025944
C          -8.58409556332093   19.79269646135252   -1.09139986190079
H         -18.73679717235496   10.54130752289214    4.22764616779843
H         -19.59877084396904    7.07435650843542    7.73903217316847
H         -20.88679492634278   11.90328008055491    5.40948365705146
H         -15.38739032483624    5.23048880158894    4.56378685176239
H         -14.25954389451563    8.55702937373826    4.20566576636532
H         -12.68074985789811    9.43153586081001    2.55978435051772
H         -12.11463735931222    8.10836122869824    0.54075125154525
H         -16.47334669188447    4.33280624207522    2.67311274625702
H         -15.07858972035517    3.36552915072528    3.23826193844027
H         -15.82083313349639    3.00985513401301    1.66938077790310
H         -13.41924911035094    5.82162020316430   -0.94212950907477
H         -11.70126430602356    4.00141099244109   -0.58453324704273
H         -10.04693063337286    4.61208401920531    3.65220870283962
H          -9.60973710137059    6.33113839598754    3.49687760507605
H          -8.48788902562270    5.07027545759864    2.92365124643417
H          -8.19559361611743    7.29247178494321    1.45362587139366
H          -9.48208594397878    8.20296552725288   -2.53313068280092
H         -11.24363419886445    6.48630551322556   -2.39235618342061
H          -7.90943852003495    9.61929806650270   -1.49847642596420
H          -6.38682852338095    8.37366476383253    0.84353942476101
H          -4.17952266103897    9.64039845413895    1.34511109784599
H          -2.65138327925120   11.66520615761963    2.80852556130672
H          -3.56157921541839   13.15153398474531    2.51164020926331
H          -1.79418421650192   13.18155325106192    2.50351861225985
H          -1.37244556154173   10.56454741805550    0.89235535935481
H          -0.52121811847499   12.08412295740965    0.58143989161248
H          -1.41719754686041   11.29095857250800   -0.71843846159054
H          -1.15699192173868   14.96310121831179    0.28178779518877
H          -2.96722019627643   17.41764982074792   -2.19131422580489
H          -0.58239870365008   17.14400663188237   -0.29033675174749
H           2.66744434841346   20.82106127840787   -2.86852373529708
H           2.67925462104232   21.42272267066901   -1.19445898430494
H           0.12640448058269   22.55400370511303   -2.56718576748274
H          -2.25693278396856   21.99619551312731   -2.26706769467511
H          -4.01451324534299   20.37914326665079   -1.97817148528377
H          -3.23967491236098   18.69021737829764    0.45482079108013
H          -8.32387264462729   17.79450768167736    1.36694709417502
H          -9.65295164797480   19.74751949457448   -1.06219069404164
