99
 SCF done       -191.941702344403          0.000651965526
C          -2.03556340984845    5.95396026658089   -2.29233760940938
C          -1.20932312540520    4.86222309490393   -2.19735544477209
C          -0.14144069231671    4.59880193806850   -3.07949932699413
N           0.74166404106813    4.32781216307522   -3.76169518004917
C          -1.30380693746716    3.83892004179735   -1.23178210252653
N          -1.30765375929478    2.95688460892310   -0.49593848013812
C          -1.94976377842140    6.98411788432335   -3.32447237958958
C          -2.99908650276513    7.91377753280897   -3.12574310071978
C          -3.19329234703564    9.00219614534617   -3.94097668943930
C          -2.30520220479261    9.18500705874721   -5.00574578538559
C          -1.25663839792748    8.25454524776654   -5.19507970881768
C          -1.06261497146560    7.15235488413068   -4.37081456818618
S          -0.27260722487291    8.67238610880130   -6.56505183296084
C          -1.27141789525539   10.07128491995673   -6.86015239642502
C          -2.28948711020715   10.22027256315422   -5.98030953274352
Br         -0.87312323855168   11.20283362044310   -8.30211186371272
C          -3.78443211757603    7.51476614719672   -1.94293754375635
O          -4.73948168674403    8.11983408205558   -1.49003054862070
C          -3.15342579527270    6.28196473837228   -1.43218851331640
C          -3.55386192271217    5.60494137068147   -0.30544739936278
C          -4.67661857625972    5.94460117195589    0.46611325425349
C          -4.99464190941586    5.31768839149257    1.63709085853005
C          -6.10427815933094    5.69797921788464    2.41364111856463
O          -6.93546023003051    6.68362179954692    1.98943748938947
C          -7.86253259573049    6.91056443239763    2.94762047393257
C          -7.64351057147168    6.03960900562713    4.01159823022068
C          -6.52629658190501    5.25354665977504    3.67093776001975
O          -5.96892116302647    4.27440702787921    4.39562339710811
O          -8.33018779183983    5.90650598995475    5.17680805601265
C          -8.84620751970695    7.91777535088550    2.75869589935439
C          -8.99722005907836    8.60046225520570    1.59772055468472
C          -9.95683869204841    9.63452317408021    1.43091707042998
C         -10.15174309205270   10.32472581824073    0.28826302600484
C         -11.13268448888292   11.38525439049616    0.19576532263192
N         -11.22898014086978   12.05374152324096   -0.95910849005897
C         -12.13933911749756   13.00758582894326   -1.02067643843224
C         -12.97640057529297   13.32285347647440    0.04086616459475
C         -12.79817291363397   12.58248880124529    1.21723215007485
N         -11.87173678880745   11.62504627110914    1.27000475304179
C         -13.57457467282436   12.78812179146824    2.42265184617128
C         -13.24274140497055   12.08231437247480    3.52884750343475
C         -13.82939893885941   12.08528141867430    4.81039046449153
C         -13.28141952632243   11.33295169037559    5.81647052353976
C         -13.69270423014194   11.18058115609627    7.16671211743529
C         -12.88482740470358   10.37984664877582    7.91525634628878
C         -11.77578571333000    9.86466863108092    7.20173251218562
S         -11.82352139513100   10.38903986691325    5.54003674927901
C         -10.69607100946276    9.12625628931298    7.64344654352094
C         -10.36009398370265    8.62983368799434    8.91990159853303
C          -9.10889742785050    8.09101503267940    8.98816467577125
C          -8.36665878633841    8.16927956649270    7.78289744041794
S          -9.38145606681578    8.82411836803134    6.52229391020798
C          -7.05850753841389    7.77307883041910    7.58720737187129
C          -6.24284465815917    7.96948992321057    6.46931243235395
C          -6.29407422759336    8.86070875146756    5.41481544060480
C          -6.95954477375189   10.11081786041341    5.18732729990155
C          -7.46001197972515   10.97052676409960    6.14225817002522
C          -8.17448783965024   12.14960607361496    5.86130031235336
N          -8.81359256813502   13.09268651567294    5.71143160415495
C          -7.26530332281271   10.79488049545350    7.52330371134185
N          -7.11640581496207   10.69088202811999    8.65768468640811
C          -6.86815866289919   10.41575530963551    3.76280236473234
C          -5.99106630174476    9.48228963475779    3.15710481058486
C          -5.54282371209880    8.51767935032884    4.17790402680202
O          -4.76630434572537    7.59543904613999    4.03690274168824
C          -5.69417367263535    9.51337793437747    1.81744223906034
C          -6.30613989590596   10.50258487961727    1.04057617313643
C          -7.16549732203627   11.44170341868917    1.65703692398034
C          -7.45824026592429   11.41529936753375    3.01539344285902
S          -7.80083831312594   12.57665710281658    0.50679036788856
C          -6.93462748953061   11.76206314499404   -0.77373443142429
C          -6.19535359628471   10.70729254659502   -0.36163963010187
Br         -7.09025182846877   12.38690568808051   -2.53090404461943
H          -4.00473615519748    9.69228400861362   -3.76876734691073
H          -0.24726564741428    6.47427806744742   -4.55843941188221
H          -3.00103154417216   11.02506237974991   -6.01378152066730
H          -2.97141870443334    4.75593702863531    0.02776584654278
H          -5.31278822464869    6.74522695872909    0.12011667550954
H          -4.38172757503090    4.52313393952814    2.03689950114379
H          -6.43249923242722    4.21385200750679    5.24182771715013
H          -9.02201432322286    6.57703473178043    5.22787686429280
H          -9.49051598134520    8.13683503967964    3.60067479639145
H          -8.36020644629325    8.35355667856650    0.76015163763545
H         -10.56439244730223    9.88997506059854    2.28904427025994
H          -9.58713422435185   10.11730146415629   -0.60880850126013
H         -12.19887145207239   13.53846946745212   -1.96267854811711
H         -13.71866819407934   14.10096858959779   -0.03215356743304
H         -14.38386955423899   13.50290332468067    2.39931349434114
H         -12.39254005197145   11.42127624124985    3.40355948414096
H         -14.70760490056466   12.68216009076163    5.01270591943870
H         -14.56958573555722   11.67791123180658    7.54228824435675
H         -13.03820924133556   10.16252121870807    8.95721930163265
H         -11.03661499145464    8.70196388323359    9.75225695179169
H          -8.66861231178386    7.69256636283380    9.88425702377408
H          -6.62922429645917    7.19088457566723    8.39289819327530
H          -5.41712427180807    7.26764027265593    6.37542899137571
H          -5.02237286258300    8.79757797894267    1.37194507743321
H          -8.13321200401372   12.13880951765338    3.44129087057004
H          -5.61351089183031   10.07191168823723   -1.00551085202361
