119
 SCF done       -208.745339920206          0.000559946679
C          -2.54786732566341   -1.58139332110584    0.36312314222359
C          -2.74618725818509   -2.39830854583510   -0.71959442837005
C          -2.26430854074291   -3.72071080449943   -0.80841802349549
N          -1.90018812580442   -4.80237752399565   -0.93272010648588
C          -3.41728755175026   -2.02613981663678   -1.90369026367177
N          -3.93225842132051   -1.79617810191831   -2.90430162432519
C          -1.77183329838665   -1.91605939151475    1.54866700065653
C          -1.65745267547294   -0.75813312178013    2.35493928153369
C          -0.97905387131886   -0.75137626559963    3.54941959860938
C          -0.38519500231622   -1.94614167806053    3.96923886233495
C          -0.50856134915419   -3.10003959384706    3.15870341974580
C          -1.19366847105808   -3.10642862218447    1.95042938053696
S           0.29125142938244   -4.46912130909343    3.86998395536887
C           0.77608120692050   -3.48583907103249    5.22596067492779
C           0.36112415088759   -2.19890516998688    5.15271291370421
Br          1.78085789273719   -4.25230157306912    6.61187814331342
C          -2.37013746711061    0.36840789004286    1.71616249759837
O          -2.46649743931881    1.49001167088879    2.16261085139582
C          -2.98898803667276   -0.20152799304271    0.49023137158986
C          -3.97542082406558    0.36766697905559   -0.25610064951925
C          -4.41690451779886    1.73243451954331   -0.27498722811591
C          -5.76500206357046    1.98492395652812   -0.59598071038765
C          -6.22490444158733    3.27494844780546   -0.62013714520011
C          -5.34547355617155    4.34840311672697   -0.38047351584652
C          -4.00127880655205    4.11326140040624   -0.11777896572398
C          -3.54818755740804    2.81305771363046   -0.05890202393759
C          -6.09492229709605    5.57761482735981   -0.45469277351740
C          -7.44347220445354    5.27267247974094   -0.72653418931306
C          -7.61603688251630    3.78458882132144   -0.93367264369801
C          -7.89516432374290    3.44426980897770   -2.41758107880683
C          -9.16759701111651    4.03797567452293   -3.00678222254543
C          -8.67763416377389    3.18189554166686   -0.00261923632164
C          -8.35583898779622    3.41359442640613    1.46946328704693
C          -8.38421300312407    6.27124531085169   -0.74335216249352
C          -7.99630871216516    7.61211614637847   -0.55120261308114
C          -6.63711282825093    7.89624215758704   -0.32624325831356
C          -5.69502347472472    6.89508803891881   -0.26307283451312
C          -9.00335259269368    8.63145461684678   -0.57784031660144
C          -8.78183312584049    9.97521483879137   -0.57083642236562
C          -9.79093287106450   10.94981153135934   -0.57683879023723
C          -9.52926671221461   12.30089113697742   -0.61381305200065
C         -10.45329804869310   13.36931632643444   -0.59765417418857
C          -9.87844415123960   14.60802232165887   -0.65719842768295
C          -8.47326063278390   14.58091383564286   -0.73164785118524
S          -7.89332854052922   12.93646489127045   -0.70613331601362
C          -7.57789290943550   15.63824095154031   -0.83848706764972
C          -7.84092086396574   17.01836437561132   -0.87203631527804
C          -6.71042283827498   17.77156271131975   -1.01706524846387
C          -5.50964398554725   17.02808362637176   -1.11169899846846
S          -5.86400199426527   15.32386742041093   -0.97812040277715
C          -4.28043540549500   17.62583957858791   -1.31958329103187
C          -2.99984233637040   17.09631429964766   -1.50591251443123
C          -1.91955575685443   17.99125077322314   -1.79337027580628
C          -0.58145676151548   17.52745910827820   -2.07286502578000
N           0.36462890107493   18.43057685787123   -2.37786851046727
C           0.07281099723321   19.70903431471747   -2.39223375828336
C          -1.24316754311205   20.16421407003211   -2.08362919683919
N          -2.19437062720894   19.29656982003567   -1.80471164412578
C          -1.54553074337242   21.54530803027182   -2.07862600324002
N          -1.76007961883952   22.67174056545882   -2.08236733768139
C           1.09465805517647   20.63521557716817   -2.71812147659514
N           1.90695295076890   21.40232901262119   -2.97272211321632
C          -0.23200944695420   16.15214669166521   -2.06428449822857
C          -1.28904857639945   15.26930167859657   -1.72676201879544
C          -2.63169283446261   15.72859549990913   -1.45342406191129
N          -3.44269371683954   14.72763650492296   -1.14359671481765
S          -2.62822934469224   13.33710214546101   -1.18133902386958
N          -1.19928638865636   13.94474295185457   -1.59696654768320
C           1.07854127867663   15.66998164930447   -2.38089680771390
C           2.25655915889394   16.40772246603692   -2.55010808763145
C           3.31270854706671   15.51858762002927   -2.86890630462407
C           4.64907004159992   15.73902677312955   -3.12807106782461
C           5.44628526705228   14.62287806282767   -3.41706064860699
C           6.80166351240584   14.50731803760906   -3.71353110051098
C           7.11492663164127   13.13429111183326   -3.92799571567431
C           5.94858539015563   12.39791764792743   -3.76469416364502
C           4.88291313889141   13.28528096932742   -3.44463792700747
C           3.55141179924329   13.06402365497467   -3.18727220747200
C           2.75238158980483   14.18193600857744   -2.89490705889098
C           1.40262602007597   14.29154203489905   -2.59683143192914
C           8.40407050997017   12.57532734046712   -4.25562065699962
C           9.53071095340962   13.26587484345058   -4.41067029385292
H          -0.90907037170523    0.14775797681716    4.14138365211857
H          -1.26599975616460   -4.01215917584294    1.37190594713601
H           0.57034437106735   -1.45748778439406    5.90204346894991
H          -4.54400043112006   -0.29199572674681   -0.90256899130533
H          -6.42703103323386    1.15193496236904   -0.78496264357677
H          -3.32003507771337    4.93532600594522    0.03981535188722
H          -2.50412216964247    2.62214557258378    0.12359862511513
H          -7.93421370999189    2.35645027793465   -2.50627565019933
H          -7.04225831754910    3.79177559733967   -3.00664269899338
H         -10.04713267759226    3.72638464106412   -2.44959011872907
H          -9.28098098743521    3.69443058588587   -4.03269677201266
H          -9.12033229332847    5.12351512723244   -3.01853305377749
H          -8.74807817740877    2.10950717864159   -0.19618726981240
H          -9.64706307279355    3.62745298890081   -0.22904036198417
H          -7.40411102788488    2.95780194104992    1.73359513401577
H          -9.13122278857470    2.97845084965207    2.09580983467383
H          -8.29588728816207    4.47818018053295    1.68552070249221
H          -9.43018777838337    6.04934690335986   -0.89606540755382
H          -6.32652236844573    8.91719166613747   -0.17012308031976
H          -4.66098943711760    7.12870805507157   -0.05852085177674
H         -10.02890552441455    8.28462461438454   -0.62236365243896
H          -7.76746438152252   10.35106733129282   -0.57049380172103
H         -10.82589279022508   10.63597576636976   -0.54790284780794
H         -11.51325277978198   13.19392506629235   -0.54212600893743
H         -10.42927678246871   15.53157974720747   -0.65570975735492
H          -8.83350776701528   17.42451804670721   -0.79185209475401
H          -6.70351393179083   18.84629560291147   -1.06938798196198
H          -4.31013013148127   18.70793113686918   -1.38293456712602
H           2.35470289155378   17.47021281671544   -2.44893981336479
H           5.07120033322565   16.73381207545629   -3.11280546754322
H           7.49907436973782   15.32260961638504   -3.77078567150468
H           5.85770119342861   11.33121183276424   -3.86249708123923
H           3.12466018787212   12.07098074997794   -3.20379788073091
H           0.69792066560852   13.48465462769816   -2.53886551749482
H           8.41566018134792   11.49905523433445   -4.37671745774623
H           9.56875270974332   14.33592245399903   -4.30022011502436
H          10.45920537213173   12.77988417358596   -4.65500491254367
