118
 SCF done       -208.438740404669          0.000737210333
C          -4.40432864302430   12.18346452354614   -0.46025478879965
C          -4.78346855237043   13.12989381536297    0.45890982849966
C          -4.30412653502481   14.45435531731264    0.47982058186272
N          -3.94699033281780   15.54345126358464    0.54787361110334
C          -5.71462973189487   12.89368735003633    1.48835660315878
N          -6.47649312087536   12.73828620756537    2.33452234440893
C          -3.47314363367299   12.39143149936078   -1.56774514752714
C          -3.38129394699588   11.19317054734441   -2.32180555081280
C          -2.57346472905487   11.07071159072674   -3.42559354361887
C          -1.82049136196498   12.18618044101108   -3.80893480094661
C          -1.92258916043843   13.37923340506964   -3.05523095942103
C          -2.73878556463079   13.50134008761788   -1.93593469294508
S          -0.91384077002914   14.63417037184148   -3.70658212533088
C          -0.37235771077096   13.55435526071393   -4.96460526152337
C          -0.91999413064141   12.31679565765863   -4.90094234849938
Br          0.85586329669770   14.16513396963058   -6.24604430061734
C          -4.25576556203542   10.18393936507816   -1.70919398651667
O          -4.43892549965802    9.02899983197800   -2.08490397009292
C          -4.85538943349785   10.81666595131287   -0.53915934522031
C          -5.66960341629683   10.11893890178562    0.32620307375719
N          -5.97632311523178    8.84412739008404    0.10909448431898
C          -6.78058905110151    8.05111443656806    0.91055798405902
C          -7.69086268702483    8.53636395945267    1.81124787300890
S          -8.57665586179885    7.29851499297918    2.58530984845330
C          -7.71634886788714    6.09367031229458    1.71719809180165
C          -6.78280466027058    6.61330399159242    0.86089986785675
N          -6.00740687237890    5.80266318232920    0.05751113005417
C          -4.75177610947936    6.03058262750509   -0.44983555255923
C          -4.04432686455136    5.08408005322596   -1.08634361355730
C          -2.74581805461123    5.28617164040433   -1.69265079846455
C          -1.92646798189602    4.17270661241430   -1.93359453401599
C          -0.69572846845870    4.33991978934985   -2.52195217078498
C          -0.24444650726788    5.62970714845098   -2.85629843701566
C          -1.05220673834668    6.73722597578361   -2.63726493161331
C          -2.29531847220865    6.55806448985142   -2.06904474344325
C           1.09517628038905    5.53201470183227   -3.38136959666431
C           1.48825583985014    4.18140382245594   -3.36063475159091
C           0.34892238952143    3.30546032780352   -2.87984882838499
C           0.74682755416916    2.43962311357566   -1.67620180893452
C           1.28942600784953    3.27128093616216   -0.51955530024177
C          -0.08605465864247    2.44037457577100   -4.08676768827386
C          -1.35529846223571    1.62101198266903   -3.89555381542669
C           2.74024915450242    3.81617169160253   -3.78184641721356
C           3.63699057897524    4.79462486650638   -4.25540869166827
C           3.22166351832947    6.13794362954141   -4.27382100093490
C           1.96994708655077    6.51034739363317   -3.83847319300484
C           4.93544135877738    4.38433856536505   -4.69970315605330
C           5.84625638282909    5.16068441591038   -5.34849753561478
C           7.11062514378960    4.71041011841719   -5.76087405624397
C           8.00249638711179    5.48578823275091   -6.46072100802644
C           9.29688981996767    5.12965430970083   -6.90627894763599
C           9.94247007856356    6.11293967818302   -7.59546093566176
C           9.18953813966426    7.29934222967868   -7.73684526520100
S           7.64145841677773    7.13577619544277   -6.95488137005878
C           9.54571679701739    8.46352930129987   -8.39936616311716
C          10.74302234415317    8.74626673428105   -9.08455560176743
C          10.76970986514200    9.98855140279368   -9.65252203787652
C           9.59471027437600   10.74225866279222   -9.44699924730298
S           8.45634022685387    9.83107666102222   -8.48845376732576
C           9.33872241434707   12.01975997676558   -9.91531939376442
C           8.13507557554133   12.67726906402467   -9.70782335748694
C           7.75708114526284   13.93967172848300  -10.12121190660308
C           8.49987604779306   15.05010892652042  -10.64332117322127
C           9.82850200835399   15.34468520398850  -10.42931481214928
C          10.47705176425273   16.47744734822182  -10.95525920506758
N          11.06621361447256   17.37116776286525  -11.37361744395100
C          10.67971032021871   14.62328215050426   -9.57127497767761
N          11.41560960115286   14.11143778049582   -8.85230174301605
C           7.54162162176593   15.95503635880644  -11.28227898845013
C           6.23077185202009   15.51042564678114  -10.98130853232940
C           6.31687822682043   14.26075349948682  -10.19388287449004
O           5.39772990969096   13.61168502426665   -9.73982463196509
C           5.10840538208965   16.17133645938045  -11.41321615570387
C           5.28733726076632   17.31942105275172  -12.19399889434737
C           6.59897446289260   17.74611766430122  -12.50143338014512
C           7.73658319582199   17.08327657071478  -12.05325286407064
S           6.59077696179599   19.17572334968711  -13.49091928951174
C           4.84715202425751   19.17961655985520  -13.47541490750725
C           4.29783584131413   18.16579892489586  -12.76715202905299
Br          3.91654347903171   20.52272612103254  -14.39844616516985
H          -2.52388981830314   10.14500281741442   -3.97783114218153
H          -2.77922822684168   14.43105219087172   -1.39341020623629
H          -0.69963911602848   11.52878425470788   -5.59772872496562
H          -6.05579619070565   10.57630077557941    1.22554033897216
H          -5.59531651539699    8.44895782648178   -0.75911085185197
H          -7.90948840174905    9.56021575118148    2.03812781195573
H          -7.94233484210114    5.05905188502653    1.87849781448528
H          -6.31139289676729    4.83846343231444    0.02487658052988
H          -4.34018934588059    7.01212077785806   -0.29006981639674
H          -4.45244717598531    4.08270272115639   -1.15425295085394
H          -2.27090060726860    3.19517686156127   -1.62905729789828
H          -0.71328184198720    7.72596597470483   -2.90998789276044
H          -2.94352945348972    7.40952288930390   -1.94089996410339
H           1.50380865754525    1.71916280560507   -1.99366778838605
H          -0.12490117044924    1.88087421798183   -1.33321961231187
H           2.17667766224070    3.82199998618506   -0.82407406486232
H           1.55358614751952    2.62668239510807    0.31576952772935
H           0.54309009498289    3.98657198672289   -0.18084517404674
H           0.74042233801671    1.76747996938994   -4.32710280643672
H          -0.22702723962471    3.10683346897345   -4.94191045494055
H          -1.27091717856606    0.94966771945143   -3.04497506840196
H          -1.53085796190117    1.01790598996826   -4.78398707625927
H          -2.21540484332734    2.26911818289450   -3.75286308856015
H           3.05258002531774    2.78139668988853   -3.76457713552576
H           3.90250792439288    6.89905895130657   -4.62088471900661
H           1.67352568579536    7.54854792420625   -3.85145930596803
H           5.19360908141936    3.34837298026106   -4.51314701636779
H           5.60757434037368    6.18770042880929   -5.58902505168665
H           7.40725529538071    3.69780503972546   -5.51992837991498
H           9.71099811520998    4.15773437337341   -6.70311484626731
H          10.93125174332532    6.01587050221136   -8.00593999436228
H          11.54846961348905    8.03660756286552   -9.14588936168463
H          11.59873789135303   10.38642953050806  -10.20987958647687
H          10.12121667414903   12.48499675746321  -10.49588843990558
H           7.33619972820950   12.10660138132805   -9.24162571069419
H           4.12240050753522   15.81421630136580  -11.16039240920583
H           8.71592967203764   17.44636405005846  -12.31724165123982
H           3.23963724181143   18.01704996375579  -12.65226129154696
