96
 SCF done       -216.666993069086          0.000765673734
C          -8.18044996841676   -2.40908962501856    3.57185144035040
C          -7.17969231814894   -3.33328830994104    3.41343902268577
C          -7.16051891970019   -4.59302053414167    4.04679944391022
N          -7.09709170099200   -5.63282530181125    4.52955918884865
C          -6.02212377289634   -3.14127309790273    2.62946313116336
N          -5.04039468007064   -3.05404636531996    2.04039844973401
C          -9.32701149345953   -2.53582737921209    4.46346883695157
C         -10.06463378244720   -1.32688477375570    4.42962445849356
C         -11.20254966150628   -1.13394724773096    5.17428159557656
C         -11.62920854434440   -2.18025611194356    5.99905629541438
C         -10.88735675820675   -3.38536247046769    6.02420484683924
C          -9.73980199510076   -3.58310057868137    5.26604057064427
S         -11.59443206115665   -4.54882259069633    7.10349220911956
C         -12.85704707984880   -3.41511406498939    7.50449865172458
C         -12.75766302316944   -2.22668076813334    6.86265355520568
Br        -14.18864300558151   -3.90772249983163    8.72947776320514
C          -9.43385191216000   -0.38876937055030    3.47992684226438
O          -9.88659857410463    0.67575462464384    3.11723476461280
C          -8.23392055980556   -1.09636826338437    2.96295228999704
C          -7.44778746447055   -0.64123613702108    1.94388259049576
C          -7.35842083874250    0.70987780483646    1.51786956914103
C          -7.08146714073485    1.01796129158026    0.16399397358254
C          -7.02541405318306    2.36542912271846   -0.32424104905935
N          -6.80703719110356    2.57695592682750   -1.62862134205719
C          -6.64766276375860    1.56577794436620   -2.42980768067586
C          -6.70717772937602    0.24157922995928   -1.94773838910641
N          -6.92406894614865   -0.01069357115761   -0.69588930468644
F          -6.55043493970123   -0.78887672505792   -2.77574313046857
F          -6.43258025784844    1.82559412334579   -3.72362670330521
C          -7.21170584865109    3.48998801936723    0.53317555399282
C          -7.39225309633297    3.16783100543250    1.91171462869541
C          -7.45429483642931    1.81387929749534    2.39554795791744
N          -7.55284298081266    1.76693995931641    3.72212837312649
S          -7.61997484457784    3.26219953122010    4.29552710803845
N          -7.49152622626361    4.05257688670144    2.89933554638183
C          -7.23108235689186    4.84194046015746    0.17788343288219
C          -7.07039943352838    5.51390431560879   -1.02284567632343
C          -7.15133540338368    6.92666328434404   -1.10053153750142
C          -6.96153202800612    7.43870687755118   -2.35243484143998
C          -6.71736314393675    6.44353369763986   -3.31537826885590
S          -6.74310825557845    4.85266466532227   -2.60008042812660
C          -6.46945227053843    6.59864740948743   -4.67852208000771
C          -6.41128713394026    7.78979986644038   -5.42587415356380
C          -6.13703534166884    7.57290967095307   -6.74532046280070
C          -5.96201059084175    6.20971560106765   -7.09326607647731
S          -6.17372141703102    5.20502237938814   -5.68339290779844
C          -5.65603377282039    5.81564349269097   -8.38338063490007
C          -5.40570992655955    4.55929889801801   -8.94374359766312
C          -5.07785058982504    4.48733157806805  -10.33749485520507
C          -4.74736696572712    3.25892210699385  -10.98314540844212
N          -4.44867801289521    3.25407135670169  -12.30035557041219
C          -4.46092862048560    4.37288557763731  -12.95063388328464
C          -4.77610722358025    5.59403308466557  -12.30607084466674
N          -5.07741153577347    5.63163388988901  -11.04527088357795
F          -4.78682873981987    6.74517056985676  -12.97493288513458
F          -4.17842902525362    4.34029724227375  -14.24859894155521
C          -4.66865106958631    2.02919049125543  -10.27930483450952
C          -5.05546119171475    2.07801031906425   -8.92086205579536
C          -5.42270501489900    3.31158524078713   -8.27061617897995
N          -5.76330112586167    3.10929998919049   -7.00366463516060
S          -5.65236234833074    1.54505881964036   -6.64946814786223
N          -5.16229816684112    1.03824699572181   -8.09205615156040
C          -4.28692338459585    0.84515338171535  -10.96142620346970
C          -3.78104396248417   -0.31384232944607  -10.45458517880552
C          -3.20030602848811   -0.64674520545448   -9.17486932230819
C          -2.53283553892507    0.20920806516763   -8.33659851467917
C          -1.93435786929857   -0.18122906351842   -7.12234030756259
N          -1.45094719066956   -0.43424358676475   -6.11206529260873
C          -2.32488818367104    1.57450871391498   -8.61086364289360
N          -2.11631316318725    2.69006662902471   -8.78759150622335
C          -3.24386061219670   -2.09762776772836   -9.04171116266416
C          -3.62112806833293   -2.65846119141730  -10.28856396127945
C          -3.88147119545124   -1.56969485428675  -11.25291950738464
O          -4.16612626305208   -1.66682248123827  -12.42285553263834
C          -3.72619208961655   -4.01390312444289  -10.48442164420611
C          -3.45821940513170   -4.85335145586063   -9.39725590904745
C          -3.09561968328695   -4.28214771804701   -8.15342747959284
C          -2.97982253110765   -2.91117357963877   -7.95702712055152
S          -2.82483462038314   -5.49989323243709   -6.94511642003592
C          -3.19109903996071   -6.74362841277912   -8.11110363521293
C          -3.50327955200448   -6.27320203705264   -9.34219824137016
Br         -3.13213004260554   -8.54435522061484   -7.59256793393988
H         -11.74528073913614   -0.20294534923896    5.12565783389378
H          -9.21339133523791   -4.52173719777872    5.31353669180930
H         -13.45135233394708   -1.41586822120051    6.99080781525714
H          -6.86249579210143   -1.34280972619557    1.36318452381062
H          -7.40710583069092    5.49141950199196    1.02921792578822
H          -7.34823922741255    7.52303125245018   -0.22705295945263
H          -6.99035918421064    8.48712004179460   -2.58912731174634
H          -6.56763506021804    8.76011309245909   -4.99011657456219
H          -6.04845259691714    8.35188127446212   -7.48188507959965
H          -5.57720309478765    6.62446340420713   -9.10084732320952
H          -4.46762624880128    0.85116724878107  -12.03154849208092
H          -4.00772724350638   -4.41637821142599  -11.44480397454217
H          -2.70885196411434   -2.51871896057787   -6.99084502020446
H          -3.75633125025672   -6.90015054043431  -10.17753808871829
