102
 SCF done       -196.067404993468          0.000967688756
C          -5.82591034106986   -3.10367991099208   -4.36773325496123
C          -5.48757373377756   -3.42901472466873   -5.65770240620696
C          -5.88826564169919   -4.61531296434424   -6.30659841341326
N          -6.18776397554790   -5.55583014888069   -6.89321862440831
C          -4.70598363613757   -2.63161205408134   -6.51839384712422
N          -4.07530411925057   -2.04082864941520   -7.27530350044855
C          -6.60595939169904   -3.93318759071957   -3.45834691585284
C          -6.73166876167505   -3.26174582010484   -2.21684461071799
C          -7.41608590725229   -3.79348525318228   -1.15164840022101
C          -8.00005123826717   -5.05404200285936   -1.31498336286570
C          -7.87147205474271   -5.71771074954618   -2.55905906832018
C          -7.18297454975052   -5.17774290916519   -3.63784483871168
S          -8.67682027178336   -7.25735969838813   -2.54785409114972
C          -9.16752022666281   -6.99295832342781   -0.89544014331792
C          -8.75035102324469   -5.81360697022569   -0.37644277133936
Br        -10.18798532881867   -8.29573968373244   -0.01452877448939
C          -6.04925857557901   -1.95702749421957   -2.28930315191013
O          -6.10237453322042   -1.06749331730959   -1.47208010321948
C          -5.43614910033701   -1.90679229533950   -3.64832203127996
C          -4.76547216001039   -0.83317106093990   -4.14975562735040
C          -4.22330473698837    0.21552544888453   -3.36591449688763
O          -4.01442992423457    1.42664764531224   -3.95956205914022
C          -3.74193333223950    0.28246305608714   -2.07218610397670
C          -3.44631195002671   -0.50610229631912   -0.86425102266001
O          -3.56657175941757   -1.67913886501072   -0.63238249810723
N          -2.88703570538629    0.42805735838752    0.00186781645911
C          -2.72391787078851    1.71082081616069   -0.52063077712949
O          -2.24163422891446    2.64286596834000    0.06666845660469
C          -3.25634189546191    1.59550822589792   -1.88072503658725
C          -3.44848725729626    2.27863821584585   -3.06953440871946
C          -3.14620949757004    3.61849351697537   -3.43615079502044
C          -3.37588128349670    4.08595438667953   -4.68229187269359
C          -3.16422329250944    5.44423259998506   -5.10840559458193
C          -3.36984702001860    6.48620297516270   -4.24434973224585
S          -3.29595591725121    8.03638243031208   -4.96410423545124
C          -2.93306120996796    7.30713972673919   -6.50045584757163
C          -2.86250230464499    5.90918745623938   -6.44521937850621
C          -2.47543922632287    5.19830714969070   -7.60696831785080
C          -2.22856540019481    3.71504384259051   -7.48318681455907
C          -3.42189737110840    2.86338743933588   -7.92531607797607
C          -2.28002194694052    5.87196814026225   -8.80881459831883
C          -2.00089782954453    5.10339102211160  -10.07402449701097
C          -3.22276635017099    5.10779453869174  -10.99630596272553
C          -2.39521283204243    7.28513710647677   -8.86842967472972
C          -2.26382144560028    8.22014246381679   -9.97076963550814
C          -2.50462465575356    9.50798791477551   -9.56937827667763
S          -2.85012537957256    9.69730235462457   -7.90594144594633
C          -2.71799006547919    7.98017064613438   -7.69052517974451
C          -1.90325630450918    7.96738413570021  -11.34286249153801
C          -2.34273197298490    8.71918479841710  -12.38326477418549
C          -1.95528075519401    8.50698810955588  -13.72190018332718
C          -2.44455181085043    9.23794178358587  -14.77251368619545
C          -2.12605084917397    9.10460289306685  -16.14795961733980
C          -2.78804115924896    9.97276525786249  -16.96120429548565
C          -3.66818364696968   10.83963467626066  -16.27335111764891
S          -3.62238251210551   10.52592645565428  -14.55673363823994
C          -4.49865589886491   11.81821630392991  -16.78617284542319
C          -4.68905816624163   12.21228067540416  -18.12827110834072
C          -5.60505827029827   13.20783539303316  -18.27994805124441
C          -6.18957651311857   13.65653526862233  -17.06506048622860
S          -5.51837169667077   12.75872877719704  -15.71981005553951
C          -7.14100938063441   14.63995662968164  -16.96620908533453
C          -7.76660085153075   15.12887227905190  -15.80291832080823
S          -8.98509674392294   16.39041061876468  -15.95413816093832
C          -9.29796818236854   16.48224107146815  -14.26739703747579
C          -8.50639254643581   15.58675132292826  -13.58984264987961
C          -7.65054744206005   14.83263554599312  -14.45445466638152
O          -6.89541378804103   13.97424470359299  -13.73538572094512
C          -7.25415745389777   14.16529620160987  -12.44007333837257
N          -6.60607280416025   13.38359679212023  -11.45636898568420
O          -6.95930990209650   13.56213352160406  -10.30433481208588
O          -5.75343455512243   12.59804351105454  -11.81454894383693
C          -8.22020747793835   15.12223768443536  -12.27693791207195
H          -7.49163534954309   -3.25550912420166   -0.22000952992162
H          -7.11665292869413   -5.72195181984202   -4.56512804881558
H          -8.96294504228297   -5.49018308210546    0.62616830628582
H          -4.61644327210086   -0.72812005777755   -5.21622647294716
H          -2.58915662723558    0.18457921810243    0.93587247743647
H          -2.69860637782322    4.22277015934467   -2.66226085243035
H          -3.80960745212235    3.40473117532422   -5.39828664978342
H          -3.63817642961326    6.40881429824232   -3.20870277863944
H          -1.98483888595233    3.49440086294511   -6.44306781149984
H          -1.35014624750566    3.43361910218867   -8.06661085838503
H          -4.34447849666220    3.21797776255185   -7.46981194293862
H          -3.26794784684343    1.82426665941203   -7.64206965319164
H          -3.55136910058522    2.90460593375702   -9.00310039953382
H          -1.74790550225742    4.07031422640645   -9.85207505414343
H          -1.13884521169383    5.53032223571446  -10.58521562610626
H          -4.07699814448783    4.66632756505497  -10.48834545330031
H          -3.01717149274333    4.52949386861891  -11.89449838834112
H          -3.49098713341336    6.11878483874106  -11.29124837545572
H          -2.45121734796115   10.38627396097352  -10.18232307056979
H          -1.22229724179533    7.15891768255822  -11.55669451970344
H          -3.05845416111655    9.51169723947838  -12.20778590358299
H          -1.23896957799563    7.72497562966750  -13.93781972335641
H          -1.41859705683853    8.36921955499900  -16.48913883255358
H          -2.67196682274019   10.01356750309472  -18.02952683917398
H          -4.15171540230315   11.75409959657785  -18.93944712678917
H          -5.88657379600497   13.63818494931430  -19.22480852515185
H          -7.46128767267445   15.10046599208391  -17.89125605078022
H         -10.02410353275469   17.17060083200627  -13.88984750112865
H          -8.64944890251279   15.43424916318629  -11.34775080614492
