99
 SCF done       -195.013428620327          0.000526856973
C          -1.84869113338415   -0.22885462460564   -0.51032163155038
C          -1.92563609075507   -1.38004186062615    0.23354748556918
C          -1.05964989615762   -2.47970841416936    0.07599606343815
N          -0.37918928129418   -3.40094503289913   -0.01129414900135
C          -2.90846774699099   -1.62998056742556    1.21377564802389
N          -3.69384129241611   -1.92208755827336    1.99903573529819
C          -0.93606938732383    0.01282727802238   -1.62234984772382
C          -1.27488108865601    1.25008135220272   -2.22166530911395
C          -0.59542687034476    1.75923713819881   -3.30053654893735
C           0.46692869911942    1.00890376300504   -3.81678891586209
C           0.79895356404131   -0.22438982395352   -3.20976524451776
C           0.11326332220668   -0.73872196597116   -2.11558406857267
S           2.15001959990978   -0.98184528874629   -3.99912811905651
C           2.24709147799547    0.35121489184392   -5.11856943635754
C           1.31769373930414    1.31402707698700   -4.91496240620372
Br          3.56683727929270    0.34659005408679   -6.45194328799635
C          -2.40036733292622    1.86454989866391   -1.48493435780717
O          -2.85294181189816    2.97497426608593   -1.67416123132850
C          -2.72885924205201    0.91021279557210   -0.40182377705126
C          -3.56611542562355    1.19214666369050    0.64504938279964
C          -4.56758439837130    2.19036438820207    0.63080101077774
C          -4.94190616604495    2.85702517116714    1.82395724634203
C          -5.86721862939611    3.96084461618183    1.83187390113968
N          -6.26819293079215    4.47625512498230    2.99268354201555
C          -5.75717670268086    4.02231825675667    4.12054716918857
C          -4.72812938628952    3.03526793095620    4.09939375382218
N          -4.35863431626675    2.47589753801948    2.97086306876471
C          -4.09474520785238    2.64833111568257    5.30757130549664
N          -3.60656072540116    2.37194032997656    6.30613876280477
C          -6.23874463342954    4.54598627019519    5.34331892002314
N          -6.61072510504049    4.96001458351576    6.34526596791675
C          -6.44533134147961    4.45894146824342    0.62087984624115
C          -6.24178086586088    3.63143758838107   -0.51575880899046
C          -5.30743701051933    2.53849141594850   -0.52425758346694
N          -5.30201460415895    1.90607050336982   -1.69277966081108
S          -6.32678073561760    2.63160306254657   -2.69431450938241
N          -6.85482682668571    3.77706777108613   -1.68458383040856
C          -7.25258602599450    5.59975848797703    0.51063179886427
S          -8.38805661332587    5.69702218282378   -0.79611708493091
C          -9.08438361020741    7.19789429637343   -0.22405475303875
C          -8.38581057395849    7.64833077163234    0.93836827361664
C          -7.32937734075977    6.77145633683624    1.31499290533006
C          -6.43039978563911    7.15526337142761    2.31746072254414
C          -6.64167555117879    8.32188600528174    3.00588906208264
F          -5.77150395406969    8.70730701312380    3.95081575179136
C          -7.75730794600817    9.12098493872944    2.72345318639628
F          -7.97668366991683   10.23908581599219    3.43737307354326
C          -8.61480887143768    8.80032959241410    1.70074215298034
C         -10.12831979910130    7.72634185841154   -0.96598618241993
C         -10.73843259415743    8.96492164600980   -0.81868642754921
C         -11.80239630224899    9.41783716116480   -1.56791206978600
C         -12.34808291083084   10.69154839937083   -1.38751274205148
C         -13.42530348317764   11.28585065427557   -2.05432957984304
C         -13.71042368624346   12.56653702221480   -1.63394350311515
C         -12.86347156855864   13.02414371774435   -0.62132224795947
S         -11.69582338315495   11.79783202053565   -0.20345164335405
C         -12.84035967825118   14.25752498485031    0.03639384196551
C         -13.67259527401855   15.37279431346645   -0.13664172539354
C         -13.35062111137239   16.42580527218940    0.68014508886299
C         -12.25240894443074   16.19084903077351    1.53178273710159
S         -11.64489614510622   14.56975584003247    1.25869645043713
C         -11.71963635710162   17.09284247123033    2.43330096756590
C         -10.63002181078001   16.92925556599673    3.29574371838383
C         -10.14515949129237   17.95072282843878    4.15526188123341
C          -9.04546772967088   17.46279019567163    4.86365560303233
C          -8.21160854652172   18.05442179209393    5.81238049647093
C          -7.18195305380900   17.28565456989709    6.33402158088392
C          -6.18730745001390   17.57866487190977    7.28131355151452
C          -5.37531013396018   16.43761432516843    7.46304343338185
C          -5.85904234431343   15.42178884220163    6.63016291594753
C          -6.97783558672429   15.90694754030926    5.91286203422912
C          -7.79605576717976   15.31207188103011    4.97842902903459
C          -8.83660891961863   16.08629635404312    4.44149384280955
C          -9.80244117705224   15.78106874611370    3.49406149804221
C          -4.23721662098093   16.29929199323757    8.34021696261469
C          -3.75829488233004   17.24950609021948    9.13898391072883
H          -0.87346494942396    2.70713123181060   -3.73411606475428
H           0.40866161219642   -1.67951957188616   -1.68174129115669
H           1.23453605810578    2.20421254407438   -5.51143980233430
H          -3.43626859383880    0.67376518766172    1.58700575512334
H          -5.56401685024531    6.56357723752635    2.55137914901936
H          -9.44889580531687    9.45509802039557    1.52412134964339
H         -10.48429693113892    7.09898462839746   -1.77464028187629
H         -10.34796170230822    9.65717160572950   -0.08979805512009
H         -12.24973255664559    8.78268688692101   -2.31991699530526
H         -13.97026554614528   10.77020082556357   -2.82505980804108
H         -14.50371377766600   13.16984448541800   -2.03752180557865
H         -14.47931056350434   15.38260015982030   -0.84704138083312
H         -13.87613609682447   17.36460345175017    0.68748284836438
H         -12.21040763082200   18.05877083655475    2.46598063956048
H         -10.56188488668523   18.93815293481010    4.23576595306879
H          -8.36334262279370   19.07703566850614    6.12772717664197
H          -6.06880659470918   18.52129996386181    7.78261358570930
H          -5.44934056428838   14.43170165040240    6.54641658435200
H          -7.65001086324086   14.28899123276990    4.66335405766084
H          -9.90414239652535   14.83330852930633    3.00157015737823
H          -3.76085866199101   15.32740401027826    8.31852285945921
H          -4.19938724700165   18.22989659263960    9.19563739924318
H          -2.90419563063226   17.07519590977427    9.76969337224339
