109
 SCF done       -208.757388652894          0.000482820178
C          -0.68827245521728    4.87323149744061   -4.76121867356487
C          -0.10772126318748    6.10651248838251   -4.58969657907102
C           1.20568518563396    6.42629415548408   -4.98954748678947
N           2.26585446242793    6.75190930157247   -5.28827865188273
C          -0.71415316395413    7.22741159912450   -3.98750343978772
N          -1.12475568308913    8.18835851518559   -3.50953814864789
C          -0.03533913644585    3.71854045151383   -5.37298632762177
C          -0.92938886738129    2.62156573386604   -5.34241926535493
C          -0.60541086339507    1.38580364419441   -5.84548702764073
C           0.66517180391171    1.22209668349654   -6.40752979364607
C           1.55220594225671    2.32341388139525   -6.43454254283048
C           1.22362469605511    3.57398499541082   -5.92571702276199
S           3.06917052873102    1.90430693867244   -7.17321892394927
C           2.49722202274661    0.27753732057366   -7.43114979821275
C           1.23695142850930    0.05685913530063   -6.98866738485182
Br          3.61891018072445   -0.97715506738176   -8.26024071900664
C          -2.19761180123553    3.03971105344187   -4.70675616097570
O          -3.16842229573380    2.33550478573308   -4.52221055114609
C          -2.01941574438619    4.46863112338053   -4.36468127785234
C          -2.97608100644514    5.26116911104435   -3.78079299638111
C          -4.25300165795998    4.83351281942085   -3.37958593617985
C          -5.13909155840757    5.70533540191752   -2.81148666159743
C          -6.42272143265257    5.35461527988634   -2.36038318348460
O          -7.22724760000061    6.30846514010652   -1.81748596695515
C          -8.39406004504990    5.73045135332405   -1.44583719794871
C          -8.34854431445682    4.37072095158112   -1.75674147667363
C          -7.09525240192352    4.12494277198157   -2.34107433786527
O          -6.62636105284929    2.95213462384850   -2.78882401289333
O          -9.28977952930640    3.40976635241765   -1.56825985484090
C          -9.43464151969369    6.48759573527617   -0.86135872665248
C          -9.39192403565942    7.83879534338693   -0.71072050353415
C         -10.46289641185942    8.59867550510964   -0.19350740160974
C         -10.45409736867448    9.95997074235746   -0.20722832523607
C         -11.48013734460657   10.84316787031430    0.19584673414317
S         -11.13128031463876   12.54271262296486    0.11149279608794
C         -12.69563510231827   12.96242352980864    0.74428799684374
C         -13.45320825314280   11.79950800009772    0.99358920213055
C         -12.76796627809563   10.60990364245552    0.69106708328964
C         -13.28714974436451    9.24634413955199    0.87955002225980
C         -13.50330650502365    8.70782409684447    2.06876995955024
O         -14.71680157303555   11.96891669615867    1.43937357368953
C         -15.66899541123533   10.93408739182320    1.31769271008799
C         -13.01162641051583   14.31998124597430    0.87723359692778
C         -14.13373860655888   14.87619975121783    1.44116354713602
C         -14.43584928529564   16.24416850998347    1.43691903709624
C         -13.85907564100668   17.24652178718872    0.67956291087426
C         -14.20987784930634   18.61648158699431    0.70118736644052
C         -13.55219815284490   19.39169350787112   -0.21393083039795
C         -12.65149394356845   18.66702412081688   -1.01639109740389
S         -12.64138581369409   16.98911105225809   -0.55320526210238
C         -11.86277685018336   19.05940883325610   -2.08925400057320
C         -11.70780717246612   20.29586248017548   -2.73726297193633
C         -10.93765782544731   20.22432131095081   -3.86696991494738
C         -10.48035213031048   18.92518285249631   -4.18137556361883
S         -10.96148025685982   17.82047450380914   -2.93231382103263
C          -9.71700856496340   18.55818473011247   -5.28536675849126
C          -9.35038224815285   17.29122513102296   -5.71284002651150
C          -9.81297862513308   16.01533146514974   -5.39615446619897
C          -8.90788828162190   14.86919921569729   -5.63491090306667
O          -7.83140846986949   14.88700221910393   -6.19340548639890
C          -9.57688383660120   13.69393866422331   -5.02276478852736
C          -9.14897580105497   12.40328498483299   -4.92674874025073
C          -9.98404724081926   11.44736641724300   -4.29908559360070
C         -11.22879533934192   11.86502354037404   -3.74848766444596
C         -12.05859735006343   10.91023688148041   -3.12938290700098
C         -11.68425319795559    9.59743918966718   -3.08730780156675
C         -10.46524074647903    9.18077522244313   -3.64925111055962
C          -9.62393985200307   10.08776127683598   -4.23046964718682
F         -10.13829955024094    7.87494285599898   -3.61817721876744
F         -12.48942145510291    8.68540643815712   -2.50612880255316
C         -11.64147479164343   13.21368703120580   -3.85886274939439
C         -10.83825461788475   14.10650549132979   -4.51192227041625
C         -11.03470749438807   15.51397545118993   -4.86068917330530
C         -12.26198721040849   16.15280530565558   -4.83136913522686
C         -12.51207583145756   17.37040285470454   -5.48653557087875
N         -12.75877465272059   18.35222733985585   -6.03003717871093
C         -13.41430217353385   15.62598824228517   -4.22533086615941
N         -14.37834298445433   15.26984031848248   -3.70929938568034
H          -1.31047974680727    0.57024418911066   -5.80655470663919
H           1.93594088410307    4.38039055710712   -5.97261804099692
H           0.72945829710615   -0.88722243996956   -7.06768651018441
H          -2.74092843806132    6.30325447105435   -3.60472800428835
H          -4.52801333821280    3.79979947419552   -3.52023306940311
H          -4.86642902088357    6.74500611836848   -2.68026920482678
H          -7.30364830124065    2.27353494711399   -2.66235611116971
H         -10.09636888630529    3.80530565343979   -1.22106864539841
H         -10.31910985196116    5.94427397775542   -0.55576540036873
H          -8.51017374021760    8.36518163390903   -1.04879101075937
H         -11.31893559929560    8.06287980537534    0.18641110987800
H          -9.56584960664821   10.45347074231329   -0.58472747243472
H         -13.46887929893841    8.68430653122472   -0.02923066247427
H         -13.30260277136610    9.24824579024487    2.97979857229733
H         -13.88004709900242    7.70508432299595    2.17789461743240
H         -16.64008646143845   11.42799431565291    1.35739963214632
H         -15.59026958960389   10.21964723725604    2.14145931973939
H         -15.56944884988486   10.40287323049183    0.36928277957981
H         -12.23694606318386   14.97807707568318    0.51015454686240
H         -14.83243997246144   14.22295286527056    1.94189764900031
H         -15.25875888838488   16.56098479173538    2.06603990161938
H         -14.94793065446891   18.99324282378678    1.38786398074088
H         -13.70961632823136   20.44750073159986   -0.34199163884145
H         -12.17615362208620   21.19414505367276   -2.37702684371810
H         -10.72750161452483   21.06024544515701   -4.50972360638472
H          -9.31280661047756   19.38884046330045   -5.85078624032918
H          -8.50169237759109   17.26213056083632   -6.39141343356197
H          -8.19569851407735   12.10660139598429   -5.33707927418267
H         -13.00259625154507   11.21387817444606   -2.70417328663907
H          -8.68980418952111    9.75266580220921   -4.65346665590611
H         -12.58950775628964   13.50134509031038   -3.43400076302653
