120
 SCF done       -218.843212242634          0.000589467346
C         -17.10688503178841    2.62142078103397    0.64218841195882
C         -17.71640318649125    1.43849188337907    0.31692615764418
C         -19.07057468754582    1.14425160429327    0.58049516606257
N         -20.16533816543595    0.85035507535717    0.76245540927589
C         -17.08311130129976    0.36122659422046   -0.33654824957958
N         -16.62722521689328   -0.55405963436753   -0.85898361026779
C         -17.72603647172594    3.73915593668043    1.34038813767363
C         -16.78566975064473    4.79394899037757    1.45968271757797
C         -17.06882749083017    5.97247363207019    2.10503721520004
C         -18.34317661466582    6.12070359417165    2.66182617410753
C         -19.28174672491986    5.06865570883841    2.52735786550025
C         -18.99562701198973    3.87708193614841    1.87512761597000
S         -20.79647168010218    5.46391904177006    3.28243159602103
C         -20.15539274927777    7.01173757768924    3.76609983277205
C         -18.87470733266679    7.22543745469964    3.38087859302409
Br        -21.24038716725457    8.20218436808057    4.72607938474550
C         -15.52705156371611    4.40203615414530    0.79986142377209
O         -14.58981833024409    5.11547085514860    0.52821877953087
C         -15.71716713398732    2.97865499601294    0.39321993280336
C         -14.72953131450833    2.23649620385609   -0.15387076450657
C         -13.34626062999323    2.68950877295484   -0.18414030934451
C         -12.70961294813987    2.85871807444239   -1.41994793048466
C         -11.43844019211244    3.38312758451059   -1.51809020472383
C         -10.72602391235340    3.73284840701256   -0.37434226827998
C         -11.30932736312728    3.51636136875291    0.85155703508330
C         -12.60610488967479    2.99274487224502    0.96019873809088
N         -12.90144934836506    2.76518477765641    2.29345451589149
C         -14.07918342330674    2.15830105321091    2.84301941568463
C         -11.86065899676524    3.13756164850103    3.11008308818611
O         -11.83130547583590    2.98236240014021    4.30512226894715
C         -10.77751148541019    3.75015931938651    2.23131893966412
C         -10.65259346638541    5.25171483876624    2.57192715044777
C         -11.97765316533619    5.95241093450393    2.25169195176776
O         -13.04886232661734    5.74960954379263    2.77346901114402
N         -11.73785091522087    6.85339264608234    1.25534021674074
C         -12.76226615791754    7.65237322498647    0.64266861031188
C         -10.39827277718226    6.87586382522892    0.89850102122665
C          -9.77232149016680    7.63950464075007   -0.06181823911381
C          -8.38650327297247    7.50234807476923   -0.23806066109627
C          -7.68352367851318    6.59384532451394    0.56122482981322
C          -8.32466684993117    5.82074069184127    1.51593408212819
C          -9.68465236895119    5.96200816127116    1.68436105393738
C          -7.74403162327750    8.29608897113272   -1.26187223194902
C          -6.41587687013367    8.48175929233798   -1.40298669317350
C          -5.79753747584473    9.23679350714780   -2.43860830292347
S          -4.05644653971340    9.45070727034668   -2.38412688871839
C          -4.10666869021899   10.34109886600228   -3.84935303593577
C          -5.40384989924716   10.46400790492095   -4.35374766181662
C          -6.35347177447123    9.84433356464784   -3.55425897753159
C          -5.40157194786700   11.23431504591957   -5.65340622354380
C          -5.92934654018044   10.38138282213790   -6.81043327384638
C          -6.21040378933519   12.52969678871980   -5.54306527970211
C          -3.92492225317861   11.51974355224154   -5.80233264730759
C          -3.20854721598989   10.98512130206030   -4.72185130318181
S          -1.52604664725669   11.28503717667380   -4.83628308321358
C          -1.76935308015947   12.13379519665935   -6.36179340660663
C          -3.11928268927978   12.16010740115160   -6.72240516706325
C          -0.65795406608359   12.66552339079587   -7.03546820108900
C          -0.74318097296659   13.29947548082665   -8.24805579312870
C           0.32513557555369   13.83812552799402   -8.96535404973579
C           0.13750382130836   14.42986637282488  -10.19979695527963
C           1.07792332277926   15.02204420235832  -11.06841298017358
C           0.54190069919837   15.50528104445385  -12.23221241805928
C          -0.84821276284566   15.31223775090836  -12.33379039565377
S          -1.46172417302425   14.51053359090873  -10.91274052773809
C          -1.75105619542750   15.63249212800359  -13.33822665294384
C          -1.58556113377351   16.26916902576527  -14.58107141780632
C          -2.74621241672793   16.38488250908008  -15.29343985543150
C          -3.88589115366701   15.84200052835395  -14.64755641602958
S          -3.42218624040260   15.18699233853864  -13.09545078169575
C          -5.16761939493422   15.80942439925080  -15.14323202298280
C          -6.30924055597117   15.26157435431342  -14.52735135917645
S          -7.84472469237614   15.30191825393358  -15.39046511614647
C          -8.72643480201448   14.50737499207710  -14.14462707228879
C          -7.89386382906905   14.21237247652394  -13.09219333596874
C          -6.54331245162601   14.63750181866747  -13.30997907064991
O          -5.77783688749476   14.32482254531238  -12.24202768835690
C          -6.60411361935794   13.71044769998914  -11.35764988787876
N          -6.05419580202912   13.27094087133513  -10.14123506301556
O          -6.81531320029496   12.71346832142845   -9.36278277230935
O          -4.87231306539958   13.46172173653294   -9.92450153804115
C          -7.89765947042243   13.60864108387159  -11.80626353122853
H         -16.32318901512856    6.74636009180977    2.19418778093064
H         -19.74248761538424    3.10410813821162    1.80464108704369
H         -18.32511929903204    8.12372921956259    3.59510758028445
H         -14.94299894757331    1.28872549117910   -0.63110890341251
H         -13.25911267057299    2.60831305778862   -2.31531631089843
H         -10.99271073355660    3.52603836392164   -2.49025956505241
H          -9.73268631170878    4.14766680768199   -0.44944830988372
H         -14.35358239317080    1.26772050139088    2.27434155435220
H         -14.91703514968451    2.86043231418950    2.85119761353744
H         -13.84264399133718    1.88511693697009    3.87249048241873
H          -9.81377186414151    3.26641335372108    2.40998377982453
H         -10.42411432791079    5.34159601188572    3.63795825655162
H         -13.71700558866634    7.30086644742320    1.02790188250469
H         -12.74692757249876    7.51567099015763   -0.43929759417913
H         -12.62595253674435    8.70984479662695    0.88184359091300
H         -10.32620511623361    8.33919037468723   -0.66858710058404
H          -6.62162405937122    6.47222101543818    0.42071050816792
H          -7.76451416501383    5.11729369609231    2.11382600659203
H          -8.41556340552459    8.78558679647200   -1.95429598260217
H          -5.73161795960710    8.04638510229451   -0.68797272884518
H          -7.40628817557033    9.81785666510366   -3.76759224354806
H          -6.94793708372640   10.06393281317399   -6.60180953311175
H          -5.30841053083523    9.49895340857145   -6.94909561944012
H          -5.93248035105501   10.96434153034883   -7.72706789866930
H          -7.25090336854239   12.30022398833874   -5.32758589623081
H          -6.16259423064212   13.07154290765008   -6.48346871278119
H          -5.81720648946963   13.16038947733930   -4.74847837724784
H          -3.47481482968239   12.63042890811204   -7.62099057982136
H           0.30848645824672   12.55073449104858   -6.56212597133661
H          -1.71948030516789   13.38974725224439   -8.70562297768217
H           1.32643317943398   13.79246986665933   -8.55887619388772
H           2.12271395565122   15.07587762827995  -10.81596991828838
H           1.10996423164938   15.98574773118492  -13.00914234450532
H          -0.62816981464437   16.62381390415243  -14.91995351807904
H          -2.81944864639960   16.84102437795534  -16.26504095668210
H          -5.32818661507504   16.24243439435683  -16.12124462126245
H          -9.77120546561402   14.31339405400627  -14.26328347959064
H          -8.71559463331000   13.16421304838812  -11.27860981220486
