93
 SCF done       -190.902057954125          0.000743426333
C         -11.96995998107330   -1.67248956274027   -8.35553143040770
C         -12.87191501628178   -2.67821338460845   -8.12847052712222
C         -13.70410320668600   -3.23706676067305   -9.12040841027525
N         -14.40313532223308   -3.72672130635676   -9.88755508988364
C         -13.08364853089618   -3.27419096857652   -6.86807493775965
N         -13.28267228920734   -3.78080531181420   -5.85761678423240
C         -11.72127517976417   -1.01534828720998   -9.63583958672995
C         -10.73864257532208   -0.00640844695875   -9.45506821241688
C         -10.28874851793204    0.78331850307812  -10.48623151980586
C         -10.82988577344606    0.56691460731685  -11.75743066848487
C         -11.80830549929107   -0.44215813047169  -11.92918398797423
C         -12.26551172708619   -1.23890939540539  -10.88555425419060
S         -12.33696722083816   -0.54511896848467  -13.57926566971814
C         -11.25279433767461    0.74999560311403  -14.01281062400950
C         -10.53067895589094    1.23650669743063  -12.97475012015282
Br        -11.17378110924076    1.33533718965681  -15.79214577533410
C         -10.32402576345373    0.00388723794335   -8.04949899644195
O          -9.49486342461358    0.73816594284210   -7.51731859033039
C         -11.09195785584996   -1.05513039733425   -7.38612892959349
C         -10.90179443386497   -1.35347923963353   -6.05999480895513
N         -10.00858954883935   -0.65989074672492   -5.34396748629798
C          -9.65170777387094   -0.85861504275265   -4.05074410757771
S         -10.37495002071312   -2.09605475889596   -3.07415031252443
C          -9.32615613461552   -1.64295902294241   -1.77024938054502
N          -9.44577481380567   -2.34694936525163   -0.56087875478362
O          -8.70680993929077   -2.02935033358193    0.34957944388903
O         -10.28720970252054   -3.22509981414070   -0.52297368271530
C          -8.47740530184752   -0.61359517224443   -2.07387261643622
C          -8.65045320729264   -0.13846616230367   -3.38817548957767
C          -7.92031794637112    0.95081369112606   -3.98926167058471
C          -6.73173403131165    1.39555877707694   -3.55026248288101
C          -5.99398436353251    2.49553578033511   -4.13348496178185
C          -4.61679967632036    2.57282621296735   -3.94258679544177
C          -3.86868689825757    3.60340464392274   -4.48892404176953
N          -2.46005973049030    3.60066670141457   -4.20109218918516
O          -1.97086084924613    2.55508676663216   -3.82612049674489
O          -1.83627312161734    4.63537200426704   -4.33519894658103
C          -4.47517277984391    4.63716646913436   -5.23476465054241
C          -5.86711126461689    4.55025235827832   -5.40246646279283
C          -6.60283462350600    3.51411469470196   -4.88180836283737
C          -3.72444970145469    5.69532542862058   -5.84966531194164
C          -4.12267655294368    6.98659284494779   -6.00976328323431
C          -3.34393756913969    8.01252000312681   -6.62361767223132
C          -3.88996730271798    9.25112283099480   -6.55028040820218
C          -5.13510649392765    9.29240234088464   -5.87091828294185
S          -5.60330776429682    7.69004931544443   -5.36061965366938
C          -5.90662124415493   10.40289736710554   -5.59548706890144
C          -5.64061845811286   11.74900273489408   -5.93996941302092
C          -6.57922353192179   12.62506157855314   -5.48840170038764
C          -7.63398099947195   12.02091872048283   -4.76120102694244
S          -7.40351665404414   10.29058105782621   -4.69367109270152
C          -8.70228611397281   12.67163023405207   -4.18181606437689
C          -9.68722182238130   12.02460898816291   -3.43809267326051
C         -10.80324429064712   12.56983297171677   -2.84781728855816
C         -11.44130816640319   13.85242442668363   -2.98362616552840
C         -11.42345258811038   14.67626047856045   -4.08455343702477
C         -12.10895839574872   15.90486491597079   -4.15780869195010
N         -12.62589849322211   16.92479224322358   -4.26482041225090
C         -10.81607917598945   14.35144210890508   -5.31361851409247
N         -10.38588833637276   14.12052784286905   -6.35326091440377
C         -12.30546209136121   14.03381989272357   -1.81734961822581
C         -12.35758499243168   12.81376411257737   -1.09743242979188
C         -11.47351252011081   11.82808662792640   -1.75354320706325
O         -11.29495308514018   10.67034766408660   -1.44347600403072
C         -13.11728819886337   12.65688107713671    0.03537189575064
C         -13.85289810949097   13.75886039968066    0.48604429648348
C         -13.78444634339453   14.97542179191557   -0.23255900885547
C         -13.02140843666605   15.13227247744367   -1.38424224494042
S         -14.75986331151886   16.20950646450093    0.50528301362879
C         -15.24458565236475   15.08770058199912    1.74926036135526
C         -14.70259636338827   13.85343380221792    1.62230275865779
Br        -16.41499853736534   15.65448180721146    3.10105435666018
H          -9.54042250271925    1.54202893003790  -10.31894005147088
H         -13.01041858531126   -1.99530292439259  -11.06768572617513
H          -9.81575197535578    2.03391635705769  -13.06358296049689
H         -11.43945646943319   -2.14572484666157   -5.55531067930220
H          -9.52271716492633    0.07482544422858   -5.89159554554039
H          -7.78148829910190   -0.21444700087028   -1.35924689614936
H          -8.36784931754859    1.40818993551369   -4.86081309267921
H          -6.23913755607793    0.88780347288152   -2.73291668909415
H          -4.10176071348005    1.82067389091883   -3.36263922404758
H          -6.36352310896487    5.30410950990590   -5.99262634947966
H          -7.66976620444524    3.49814326057430   -5.03900315086849
H          -2.72072161370224    5.46690053812799   -6.18195686262994
H          -2.39843163113761    7.78702559360674   -7.08327720861742
H          -3.43382964067672   10.13899365176147   -6.94888916344655
H          -4.76960747303842   12.03234765478364   -6.50255835973485
H          -6.55354813071570   13.68731461534170   -5.65296150734743
H          -8.73203085322710   13.74522142401052   -4.29565652524557
H          -9.52464551813553   10.97457045968924   -3.21075162985647
H         -13.14438548815529   11.71428338261809    0.55917983396521
H         -12.99660655839989   16.08101853839161   -1.89419527285334
H         -14.89178144999095   13.04203967736615    2.30119433845541
