99
 SCF done       -201.244992218840          0.000532675747
C          -9.04290569828517    6.04910318440435   -9.32684086299184
C          -9.01233254132497    4.94341157411576  -10.14188111387788
C          -8.60160215258496    4.96472888091786  -11.48991811550429
N          -8.28035679473525    4.91157222633552  -12.59151627315696
C          -9.38625484802434    3.63550084068471   -9.77301716204905
N          -9.67105430663443    2.54233402566379   -9.56225038237151
C          -8.66427187583005    7.39972972976966   -9.73703754072627
C          -8.85348619606281    8.27538561896923   -8.64153312961007
C          -8.58579913039989    9.62013545785535   -8.71151038031522
C          -8.10516569734279   10.12855555628126   -9.92290305016668
C          -7.91704297229475    9.24643958408503  -11.01180690915784
C          -8.18932928773251    7.88537797381546  -10.94073006549618
S          -7.31415498373982   10.08056028657363  -12.41302302572129
C          -7.32371595824722   11.58195896844529  -11.52689905638738
C          -7.75521974214398   11.46786916481836  -10.24883663586690
Br         -6.76298960581623   13.16049988068027  -12.37237058008648
C          -9.35786446736395    7.50768203740112   -7.48287843442377
O          -9.62586977391830    7.96925930541338   -6.38980136245321
C          -9.45393773183629    6.10735129588657   -7.94217846777401
C          -9.85328849352335    5.04933991518626   -7.15899198790472
C         -10.24091750213275    5.15291618442968   -5.81622871722727
C         -10.60770605806323    4.06601673204336   -5.07090082198305
C         -10.99040187132683    4.15946927022866   -3.72328128861833
O         -11.02964813384002    5.36434647740223   -3.09115557457729
C         -11.41810852246600    5.17019849582798   -1.81087748703229
C         -11.63724219897334    3.81089393485556   -1.60045807499655
C         -11.36782490577699    3.16146691522869   -2.81745956694461
O         -11.44903518300246    1.84602037106382   -3.07754957955728
O         -12.03614007506667    3.15914469738863   -0.47210002726777
C         -11.54458506295621    6.27886120665923   -0.93221330357868
C         -11.31600957010482    7.55341741348967   -1.33553419641973
C         -11.42821101577343    8.69903973646555   -0.50839507730730
C         -11.21682658971497    9.94784365733912   -0.97996514903309
N         -11.35177173414402   11.07458340637859   -0.22755699474902
C         -11.05447197917094   12.36194282974361   -0.63582706641235
C         -10.31403035658647   12.70965348882151   -1.72941168303150
S         -10.15943508784873   14.41081858901385   -1.89888382347100
C         -11.09509875203138   14.68355923912534   -0.48951756526283
C         -11.51701894201093   13.51809548803309    0.08450129140032
N         -12.31169807955128   13.39984676591911    1.21252088113233
C         -12.66152248775582   14.39056163018490    2.06077355139858
C         -13.51976006329287   14.20661242813833    3.09355851848071
C         -13.90885801185487   15.22382775487232    3.99392174713525
S         -13.33369341591970   16.85602772208795    3.89568931271160
C         -14.30603077249737   17.35290338818254    5.25735561160442
C         -15.02915195399837   16.26885523001915    5.75559359583667
C         -14.80557928663201   15.08258339112336    5.05354956513722
S         -15.53042950788183   13.51268650731506    5.38121095773808
C         -16.65096688052208   13.66108083566079    6.73372649494627
O         -17.23279919517727   12.66480136719905    7.06522805003845
C         -16.90189144115380   14.95074691317156    7.48784370241005
O         -17.68481429360959   14.95451609548166    8.39605605145455
S         -16.09244151558464   16.48424181673150    7.13574067857433
C         -14.35074947056940   18.68413457190832    5.70634061598189
C         -13.63338871418899   19.70437371308895    5.15633654567829
C         -13.76578781469917   21.03451863164864    5.59124855438600
C         -13.20758825507633   22.16344899394366    5.05926766106764
C         -12.47263764208974   22.41470918019330    3.84125805919457
C         -12.55478473894843   21.72489903113328    2.65695618108620
C         -11.81885268521983   22.05755501376192    1.50083265103557
N         -11.23009590570951   22.25946988838865    0.53585149241557
C         -13.44144449662370   20.66304043952784    2.38586721216918
N         -14.15729774191935   19.82414496068311    2.06482224176380
C         -11.76934421227179   23.68497823472307    4.01500564261304
C         -12.22479630827516   24.29998298358726    5.20833645733162
C         -13.18938872774634   23.40428756033197    5.87634272088700
O         -13.80701402923455   23.60849364695333    6.89705893046941
C         -11.78018664957069   25.53127705945322    5.62316809141649
C         -10.83280193566142   26.18510608358067    4.82811947814255
C         -10.37317341096154   25.55745924296978    3.64605009680898
C         -10.82802390952721   24.31432049064746    3.22279730710762
S          -9.19734607455593   26.53466188686837    2.81998076534112
C          -9.34114318443319   27.75815284482641    4.05420767780808
C         -10.22160041552921   27.45179730102902    5.03640034817436
Br         -8.31330657978997   29.32203427141376    3.93060550600039
H          -8.74110878491449   10.26123916787207   -7.85787917382580
H          -8.02790046943332    7.25682074301129  -11.80014066755367
H          -7.82472860246561   12.29237110309225   -9.56294719564848
H          -9.86831714800047    4.05859789500161   -7.59431407537292
H         -10.24440187973995    6.12776681021786   -5.35301775305120
H         -10.61286071964925    3.07244432922818   -5.49672593336291
H         -11.73320855146278    1.39037955779390   -2.27369410921512
H         -12.16871593090876    3.79379195194502    0.23933316947751
H         -11.83852835328512    6.06892482016009    0.08756653641711
H         -11.03038857158974    7.71470375547689   -2.36520451676021
H         -11.69611153954946    8.55264063015246    0.53046381247743
H         -10.95726765402046   10.10801108456544   -2.01453990727924
H         -11.58768098555253   10.93799843613788    0.74560918156473
H          -9.83727045102552   12.06734505912891   -2.44011735408865
H         -11.29774211404366   15.68849221745091   -0.18212545420851
H         -12.76280149450139   12.50585982130769    1.35749779818720
H         -12.20578160019600   15.35369995201963    1.88943029274925
H         -13.96736204458211   13.23542604997147    3.25777445077255
H         -15.04039373411860   18.89078815080803    6.51508581324014
H         -12.93911948023273   19.47322698608481    4.36143034508523
H         -14.33509008341085   21.19953622984051    6.50080298619916
H         -12.15201404080907   25.97714957281007    6.53225917691773
H         -10.44253451582549   23.87607707460556    2.31735134946847
H         -10.43273564382227   28.09100708394100    5.87411751445168
