101
 SCF done       -176.889039660019          0.000533312892
C          -3.49757903524260   -1.50116352300915   -1.34476873610235
C          -2.32561546661722   -1.53935221420136   -0.63204129251557
C          -1.44024027266785   -2.63652485377660   -0.62713595786698
N          -0.67756812301832   -3.49421112726330   -0.58595372442570
C          -1.84721659328695   -0.51896586888210    0.21614341269788
N          -1.39028202786477    0.24768430996950    0.93955534116083
C          -4.03342301123643   -2.59758830862348   -2.14157036018620
C          -5.31443977097497   -2.22663201688060   -2.61340017006655
C          -6.08674601942964   -3.05218825534933   -3.39311542331285
C          -5.57041941057150   -4.31009085162487   -3.72054519785629
C          -4.28717422680479   -4.67222365491725   -3.24734221173017
C          -3.50521276679023   -3.83506789677781   -2.46150501241334
S          -3.83986349458405   -6.26801053585956   -3.77235913852808
C          -5.36413909938779   -6.42480053164162   -4.60494818822477
C          -6.16685571524551   -5.33988885115704   -4.49902158461496
Br         -5.75082206017991   -8.00628000539480   -5.53679683608628
C          -5.64512842854426   -0.86513760722882   -2.14083442651394
O          -6.65659949630173   -0.25432113193463   -2.41051781231214
C          -4.46006058443865   -0.41339194476917   -1.37018521988661
C          -4.20310151570446    0.85498996275561   -0.93442046759692
C          -5.09044658074926    1.96699140828844   -0.78879223191279
C          -4.53401609202797    3.26282841140370   -0.83977111500377
C          -5.34494286366685    4.35571244912835   -0.69655089668870
C          -6.72561924309004    4.19470496880049   -0.45932545853572
C          -7.27615970590196    2.92275336603094   -0.35698973649405
C          -6.46281327659319    1.82374754730811   -0.52485559573810
C          -7.32593369371818    5.49959373176169   -0.33868952967614
C          -6.32380288674102    6.47372857837479   -0.50048335551712
C          -4.98186418582728    5.82187758983998   -0.74006526181195
C          -3.97639977162625    6.18415413765536    0.36911552908858
C          -4.47939887111649    5.82958636640706    1.76324906543330
C          -4.40175092213071    6.21583808995992   -2.11117445037483
C          -5.34108465505612    5.89065634463694   -3.26633619062769
C          -6.63203934943931    7.80825452298049   -0.42851627613229
C          -7.95675676801848    8.21403587290592   -0.18907080213977
C          -8.94211740601657    7.22645722393207   -0.03290271631027
C          -8.64074212887962    5.88395367478493   -0.10542189271619
C          -8.23279717023331    9.62793606399166   -0.11864911125771
C          -9.42214380019997   10.19994483325805    0.15473773088347
C          -9.69143897906376   11.61266862471475    0.22208193662720
C         -11.00321504731792   12.07680674532563    0.57868368036467
C         -12.12352118590494   11.34609120791733    0.88135505550091
S         -13.47195555051771   12.33466984588859    1.24157893202982
C         -12.56424580559405   13.75613443262321    0.99802072894983
C         -11.25863800162537   13.49026734689872    0.64778945643834
C         -10.23013965795998   14.45478276269278    0.37955623785493
N         -10.56180802922136   15.76747820100752    0.39830756925633
C          -8.96573865431346   13.97381933300207    0.02262124358029
C          -8.75048754921268   12.57490893995770   -0.04602371228243
C          -7.81148817952287   14.78352558481431   -0.35744587831094
N          -6.91812273751032   14.15081664718158   -1.10633019521040
N          -5.81336084908049   14.66681797697778   -1.53886504282012
C          -5.39372361250492   15.89029936094657   -1.25063463481393
C          -6.24000259694261   16.68163910644940   -0.41068410785287
C          -7.49466174057281   16.12226330164836    0.01974100232635
N          -8.17122006127415   16.97684251757509    0.78636602950525
S          -7.32007933170225   18.34117240401141    0.95894738846999
N          -6.05599364820169   17.90856238601882    0.06309123579540
C          -4.13520270352316   16.33439544903686   -1.79496729711034
C          -3.33640381110455   15.48684528154230   -2.63754075555474
C          -3.58110216756922   14.19793184003870   -3.04221337256913
S          -2.34016470398186   13.58341940584893   -4.04235306791324
C          -1.45550295300726   15.03704959827383   -3.95164534249525
C          -2.09020643467570   15.97759531848298   -3.17161047498749
C          -1.64816867640112   17.30186209830110   -2.87418384819474
N          -0.44882570946154   17.75497704386542   -3.34397945854883
C          -2.44406613941512   18.07680331862306   -2.05505805749941
C          -3.64708810839528   17.60240596973160   -1.53401211689996
H          -7.05986498866230   -2.73794116747581   -3.73671683381791
H          -2.53139670695254   -4.15541502224350   -2.13120483486010
H          -7.13951896987768   -5.26576153589647   -4.95013074772107
H          -3.17172410411418    1.07985055477781   -0.68530602958265
H          -3.47348632740932    3.37498934991609   -1.01584656819747
H          -8.32674477152726    2.79463748261425   -0.14505709098013
H          -6.87985800153683    0.83676956424797   -0.41993579126611
H          -3.77436990033645    7.25609803139344    0.31899558150457
H          -3.03890009342726    5.65795706919114    0.17785775594649
H          -5.40336072961924    6.35942295290466    1.98473502693750
H          -3.73721623592152    6.10474226171816    2.50895466710349
H          -4.66784266898403    4.76135759400134    1.84459951191205
H          -3.45454044238023    5.69120193060883   -2.25399072586050
H          -4.19236238358192    7.28750612488465   -2.10608896642033
H          -5.55210958660270    4.82408776637244   -3.30383164789224
H          -4.88829188498113    6.18532124528316   -4.21030506975361
H          -6.28332956749224    6.42277836112300   -3.15588855407761
H          -5.86531570607555    8.55991253598976   -0.55271528609775
H          -9.96474491503020    7.52084423989119    0.14468170011387
H          -9.41585315414882    5.14175265347402    0.01593108544253
H          -7.37564325807397   10.26086211674576   -0.30280640700055
H         -10.27280351054860    9.56428561681762    0.35081860814090
H         -12.24903365277992   10.28329807206752    0.91575502189864
H         -13.05697710074240   14.69992182333159    1.12545216609361
H         -11.45281850217145   16.01711257655515    0.78925570161206
H          -9.80954703152322   16.44161601334367    0.50839767407249
H          -7.75728109797056   12.28047223063873   -0.34014700384614
H          -4.42806176639270   13.59235435700800   -2.79844473164039
H          -0.51865254701247   15.11103632305149   -4.46717281710499
H          -0.01885561453845   17.27549521132737   -4.11455154609904
H          -0.25885284350689   18.73957248144165   -3.26527159389818
H          -2.12774738409282   19.08121154669266   -1.81314933222287
H          -4.22235543631958   18.26144731392031   -0.90415075416789
