82
 SCF done       -166.644397278866          0.000521005426
C          -9.12997248412806   -0.56973483205405   -3.83323156292754
C         -10.33692464119509   -0.93226549450073   -3.30615145714440
C         -10.83944200269183   -2.25280134177390   -3.33089200822351
N         -11.30121541801772   -3.30309725607876   -3.31998725286140
C         -11.23199327910140   -0.08466863236262   -2.61377831923584
N         -12.01083474649068    0.50701577911692   -2.01368652384226
C          -8.16360441224750   -1.47499313742781   -4.43418340155677
C          -6.94670886304547   -0.77447846574646   -4.62679204199850
C          -5.82226522498868   -1.37109976046296   -5.14630633281853
C          -5.91110592800442   -2.71613886659999   -5.50980079146988
C          -7.13484776143118   -3.40748790045319   -5.33168827558125
C          -8.26660717973598   -2.80826699187773   -4.79446861438856
S          -7.00969029151524   -5.05764040237103   -5.85869222163811
C          -5.33859174290336   -4.79550478422399   -6.29961931860189
C          -4.89519840756371   -3.53831379956304   -6.06667844285420
Br         -4.35218643332180   -6.21279215817549   -7.02600922583211
C          -7.09333322887669    0.61931578078516   -4.17693201901349
O          -6.19452026788221    1.42254226880001   -4.08249496174935
C          -8.54124509199589    0.77547224476436   -3.82862756511623
C          -9.25697442469321    1.90519745945188   -3.64371372569294
C          -8.84408891812738    3.29646496161157   -3.71049556563525
N          -9.80326361093998    4.16894956866640   -3.37693139558824
C          -9.49362525392049    5.44983601498196   -3.42275425510119
C          -8.23307191635708    5.89852252864571   -3.79350263318200
C          -7.29579185150025    4.91707743447689   -4.13538959377218
N          -7.62570968314342    3.62544596994690   -4.09349925820959
C          -5.94018117064815    5.22956499790291   -4.53796382467933
C          -5.09899493728301    4.22723138010604   -4.84003756166900
N          -3.79794390960467    4.39110855831146   -5.22060891862538
C          -2.97104308931439    3.38967409832009   -5.58524956015025
S          -3.52348802001425    1.75010023907077   -5.52455248525383
C          -1.94421868914725    1.21070466702160   -6.02951214794239
N          -1.74036685034882   -0.15548047557251   -6.20493935468100
O          -0.63454061863882   -0.53700066870274   -6.54116428065766
O          -2.70495757100819   -0.88608447975975   -6.01062152821832
C          -1.05713126639276    2.23413002349063   -6.21671547676389
C          -1.62164358441911    3.50845300916349   -5.99273087358293
C          -0.85094896095558    4.69287883363975   -6.18203609377132
C          -1.28479821883159    5.98270876246203   -6.28583522903199
C          -0.43911105713041    7.08890186673650   -6.43632681223663
C          -0.90827321411015    8.38624921563706   -6.47025913194410
C          -0.17352810107371    9.57680767551589   -6.63043399793608
C          -0.93667361640663   10.71482821404676   -6.59509382744238
C          -2.30495687337112   10.47507168461557   -6.39739316469462
S          -2.61360131587232    8.76712599230645   -6.26976002422370
C          -3.34874955401134   11.39641783450491   -6.29411450354767
C          -3.29460031539616   12.79171330384304   -6.40510685671272
C          -4.51770814749333   13.39638365333936   -6.25298552827211
C          -5.57388545538320   12.50303793617337   -6.01276878477562
S          -4.98337172059831   10.86347104149184   -5.98421602333039
C          -6.90948101270437   12.84736615300127   -5.82870744992115
C          -7.96772178818639   11.99896977708207   -5.57858710333418
S          -7.82476678284096   10.25484495265128   -5.40611410588476
C          -9.58285444741983   10.04571074375822   -5.12178757286539
S         -10.28371897235388    8.58226176530661   -4.84783294361110
C         -10.17129130754577   11.30372584702263   -5.17648095197117
C          -9.32695840138627   12.36902441837741   -5.41788402830934
C          -9.97464150229288   13.66180124267478   -5.46769425493809
C         -11.29053013024969   13.62616477925654   -5.27373823185423
S         -11.84439336096152   11.92598443769144   -5.00805437584904
O         -12.67203704085760   11.49969082164841   -6.09719013567913
O         -12.33290904120412   11.76548390096147   -3.67083402075954
H          -4.89658617838481   -0.83450088846534   -5.27588784306486
H          -9.17624317392175   -3.37301648520575   -4.67669148401774
H          -3.90066838951415   -3.18370344063688   -6.26872236561410
H         -10.31592885220272    1.82250469113750   -3.43222612024790
H         -10.28322777331030    6.14090137444008   -3.16012945139398
H          -7.99747460912670    6.94896696817277   -3.82907699128692
H          -5.65283661248519    6.27077671219428   -4.57888560670681
H          -5.46336549811295    3.21113286187353   -4.77217657288710
H          -3.41619375199087    5.32934656777612   -5.18760199511303
H          -0.04129512248963    2.06976942639944   -6.52842567862860
H           0.21310863199679    4.52004284365367   -6.28028360988333
H          -2.34097770975790    6.21691957523829   -6.29487168781420
H           0.62799962685327    6.93371973225103   -6.51137033274074
H           0.89288379872651    9.56647465655847   -6.76872655201937
H          -0.54135380805697   11.70888116234987   -6.70043877754207
H          -2.37938391088751   13.32194144923759   -6.59603829870096
H          -4.67667834840449   14.45872133778346   -6.30830587899560
H          -7.13806033000973   13.90343171263429   -5.89252193529513
H          -9.40657192288701   14.56144405315019   -5.64946005809820
H         -11.97887295668592   14.44699329843204   -5.26552083071823
