90
 SCF done       -181.881546019088          0.000723968695
C          -0.62660904897669    3.67213603668871    2.21817716292388
C          -0.35877988218267    3.67507484520693    3.56308488186825
C           0.90490415252456    3.39586546511348    4.12112676010732
N           1.91105266213622    3.17766160272297    4.62901853691598
C          -1.31558382350368    3.96680617083603    4.55613958158267
N          -2.06335192500630    4.20104705790221    5.39516226473471
C           0.33541191763229    3.38823023586917    1.15523559785300
C          -0.31557939927965    3.51192239385069   -0.10002538356120
C           0.33180312637507    3.30194743803466   -1.29359086894062
C           1.68515923001561    2.95036444626183   -1.24904278705906
C           2.32542671794888    2.82800133592869    0.00669325536453
C           1.67083270013548    3.04278939529566    1.21476819810149
S           3.99452572141891    2.38219091648192   -0.16748053765283
C           3.81365137762676    2.36593085027157   -1.90155329528802
C           2.56734302363791    2.67863702604131   -2.33009112423909
Br          5.28527586100603    1.93793227252763   -2.98255606158103
C          -1.71862812540108    3.87371883577333    0.13073379013719
O          -2.58893507228957    4.07013208373179   -0.71780848709366
C          -1.88999044932112    3.95414775615010    1.58026279516449
C          -3.11232251399295    4.24447907294795    2.14521157305112
N          -4.16694694251481    4.46977044618996    1.35943089501974
C          -5.44236811913801    4.74560785678990    1.73299460152107
S          -5.90381053458580    4.83836341808132    3.40522475447293
C          -7.52584760876014    5.18256800450819    2.90791018039527
N          -8.49372719550393    5.38786419094649    3.90121270572171
O          -9.62970501255345    5.62827074598014    3.53662816521589
O          -8.12193501595444    5.30805544744603    5.05779140480233
C          -7.69354590211543    5.22198169233634    1.54973539950443
C          -6.50044976504647    4.97274589615382    0.84208462528452
C          -6.35494559329728    4.96049674379292   -0.58596215405978
C          -7.36873070446369    5.14271261540321   -1.45580602600810
N          -7.19350993969255    5.19262725947841   -2.80175753217551
C          -8.21606444758481    5.25184200456459   -3.73852092901670
C          -9.49522694805128    4.81752880817493   -3.54694838760611
S         -10.48216110751227    5.07053584690637   -4.92768885590876
C          -9.17401884020021    5.76440192950945   -5.79286554073062
C          -8.02732119068116    5.81377556026432   -5.04929728672804
N          -6.81778288719533    6.34671520536699   -5.44216877767610
C          -6.55922701767070    6.96753090696321   -6.62055349003774
C          -5.35171889267110    7.51711736281850   -6.89502640477771
C          -4.98265959943592    8.21474895017490   -8.07766534259524
C          -5.82375243858366    8.50767210290287   -9.17784635482563
C          -5.35598364392687    9.25782017436457  -10.32164406833164
N          -6.19010517623171    9.51964537779344  -11.33108265104298
C          -7.43414393596736    9.09268150613210  -11.28351980776177
C          -7.89745705191326    8.34893907821298  -10.15666394094467
N          -7.09680710009737    8.08122653800769   -9.15154302128775
C          -9.23016240622723    7.87529751102377  -10.08580533282487
N         -10.30532123457731    7.48404859994838  -10.01491494422427
C          -8.30686496007945    9.38073512660312  -12.35813728609747
N          -9.04290118910384    9.59571451379661  -13.21054716908255
C          -4.01686615579613    9.74975181292479  -10.42828303931266
C          -3.17902722994969    9.43882539775091   -9.32813957261096
C          -3.65560980445900    8.69542317758216   -8.18888991776182
N          -2.70043784664999    8.52261234711098   -7.27417277363041
S          -1.34303740607932    9.21802197055453   -7.78723365955736
N          -1.90189826536423    9.77207471067845   -9.19338716698869
C          -3.66126030233402   10.47931034224321  -11.57133432526705
C          -2.48489340979820   11.08277577551971  -11.95958060377535
C          -2.37360910392591   11.79066863256867  -13.18584175475533
C          -1.14992949648953   12.33509404137909  -13.42269576440803
C          -0.22106586472245   12.08293439968931  -12.38855002046886
S          -0.95727591087915   11.13256561912238  -11.11149272572165
C           1.09475928299619   12.49152930180388  -12.31645142870910
C           1.81546356812684   13.26428293224423  -13.26716540047952
C           3.09965059144133   13.51496094204367  -12.92386547652485
C           3.49376865966564   12.95316752916831  -11.66474935508172
S           2.11784640799314   12.08972422618321  -10.95734804472030
C           4.69195208833233   13.03398976171418  -11.06820643709585
H          -0.18760877513057    3.40295079305485   -2.23360609188586
H           2.20238024535119    2.93617592377822    2.14546047483002
H           2.28107043929228    2.71558236878646   -3.36526102407841
H          -3.26351794040109    4.29506980182924    3.21541442776268
H          -3.94692114192842    4.40163678254083    0.34913148741033
H          -8.64872243274761    5.43020403196578    1.10549971576100
H          -5.36167749759342    4.80247482448680   -0.98341744696834
H          -8.38418161197505    5.29543625520560   -1.12772811467158
H          -6.24948627392175    5.07222935554744   -3.14258035281550
H          -9.91171182435199    4.35175582703236   -2.67764725946287
H          -9.33823888542682    6.10818759178675   -6.79311519499806
H          -6.07746211498878    6.36631509946177   -4.75288472051080
H          -7.36353210422212    7.00438755022165   -7.33434839151067
H          -4.55894520807529    7.44658389945879   -6.16014329714907
H          -4.47757413779745   10.58841386891209  -12.27662178317198
H          -3.21285990070404   11.87336561533857  -13.85415777492336
H          -0.89948061861132   12.90163048069537  -14.30158252645687
H           1.35239182190023   13.60821520653384  -14.17483231606124
H           3.79664414370537   14.08173512101317  -13.51497990309146
H           5.50149326036306   13.56884058689254  -11.53255609847742
H           4.88215690516183   12.57226943718527  -10.11681962309621
