89
 SCF done       -170.666940053274          0.000860664327
C          -5.92502951466583    4.30669287136435    4.76457271801997
C          -7.21909849475683    3.88717353303183    4.95153111109241
C          -7.80790495877327    3.67204058316084    6.21406423676629
N          -8.34774703060749    3.49047132950634    7.21119335400807
C          -8.13773002255867    3.61317027083878    3.91803976181751
N          -8.94002439672089    3.36488674681480    3.13445862569990
C          -4.94825538327552    4.54227637329873    5.82246681288981
C          -3.71880547330832    4.92367009595515    5.23223798436225
C          -2.59668047093494    5.20740374910753    5.97073711113957
C          -2.68885980098734    5.10184224447181    7.36256948565796
C          -3.92191819667937    4.72400363178358    7.94504063347147
C          -5.05863244986979    4.44233164724623    7.19723323296207
S          -3.81754806172233    4.66483531603565    9.67876459921122
C          -2.14155886391115    5.14006091346563    9.59746047832298
C          -1.68154116469716    5.33328300185458    8.33907594511351
Br         -1.15885748637780    5.33865524710939   11.18200536247320
C          -3.86882808716820    4.97177674014130    3.76597925245480
O          -3.07160203021381    5.42573389129451    2.97724694721937
C          -5.26484267192535    4.52459424867250    3.49679628076409
C          -5.83125641993660    4.50171210842766    2.25353752461680
C          -5.07946949823832    4.46187242492199    1.05915055014197
O          -5.63810076769527    4.89445213025974   -0.11035745213781
C          -3.81958736646579    3.95737621473585    0.77745757036477
C          -2.67673046869199    3.20413566103460    1.33737005851204
O          -2.51013839732670    2.74117718491896    2.43554903099127
N          -1.81652877729479    3.06247157162665    0.26176084650130
C          -2.28404813283058    3.57715872581348   -0.94047376311619
O          -1.69236704765978    3.55010692269510   -1.99124282725526
C          -3.60555422968307    4.12250198801232   -0.60010459235835
C          -4.75223393796103    4.71567669459369   -1.12539657935792
C          -5.02369003905909    5.08060260883181   -2.45489983523997
C          -6.19657502547700    5.64344800501160   -2.88499633001070
C          -6.52194609710636    6.01519811217677   -4.19789628974762
C          -5.76196728302688    5.89314065950122   -5.34326510754667
C          -6.16663574703866    6.29687401210023   -6.64308767062004
C          -5.24691602694049    6.07245605026943   -7.62383651640161
C          -4.05668097139078    5.47702946488243   -7.15455757453797
S          -4.15607453318345    5.21262844007421   -5.42588007272830
C          -2.90859219879451    5.10812590253649   -7.82413383047339
C          -2.58022915048023    5.22544849288482   -9.19871955787370
C          -1.34062167490267    4.76774171439281   -9.50747335823147
C          -0.60266594836113    4.26539750801056   -8.39266222277884
S          -1.58857353101449    4.38882054865012   -6.93715925779965
C           0.62778181481533    3.69092667430469   -8.39993673560785
C           1.31852820739392    3.19016780484152   -7.23703564298497
C           1.49778956285982    3.81939289228283   -6.06716923563867
C           1.14932188608175    5.25078006530083   -5.81430398727194
C           2.11316432606086    3.15452230302196   -4.86274361136652
N           2.62398946075992    1.82990221894250   -5.09952334684274
C           2.59559231959699    0.82359914135302   -4.20224777133644
C           2.02560483674564    0.84187440110036   -2.97335286413037
C           2.00962720660995   -0.28613686109790   -2.11699773349935
O           2.52862301356873   -1.48797120343932   -2.49242305088117
C           1.51650992701418   -0.41252830719689   -0.83268370423270
C           0.86624319939361    0.29386641062792    0.25088399801387
O           0.50826954832098    1.44775448582681    0.35225404642512
N           0.72312667578952   -0.66789944730800    1.24771052040169
C           1.23007890445654   -1.92822654073828    0.93079633904471
O           1.20880294877630   -2.88545736492992    1.66106158192958
C           1.74940016937819   -1.75750253533421   -0.42830053301147
C           2.37458569298989   -2.38841099653631   -1.47402823370361
C           2.83782731661914   -3.73926050980550   -1.60610745039272
C           3.44066024900739   -4.22211038936742   -2.69107254898065
H          -1.67559906283023    5.49360612286926    5.48758827632910
H          -5.97524806300591    4.16275026081377    7.68898540150189
H          -0.67448314165443    5.62775450065864    8.10581108239141
H          -6.90634897816779    4.51287744594797    2.13420324276018
H          -0.92289913660688    2.57691741887900    0.33868681952060
H          -4.20786552409021    4.87300381042095   -3.12751748291140
H          -6.95862957302512    5.82198996394565   -2.13742954742560
H          -7.50080388651125    6.45458958548226   -4.34326545202403
H          -7.13069967844698    6.74448330241647   -6.81061042277517
H          -5.39239759456587    6.31839061113149   -8.66061347276705
H          -3.27127871635109    5.64132408621824   -9.91021212683327
H          -0.91591876206643    4.77478936006388  -10.49602900080248
H           1.08863215102394    3.50397872840432   -9.36231738227391
H           1.72819437047336    2.19519632313208   -7.36849136650733
H           0.89969081281796    5.76937157690997   -6.73476541364495
H           1.99162821251303    5.75813972329474   -5.34528266791469
H           0.30339882029718    5.32071680437217   -5.13095428221459
H           1.32823788752145    3.09012014984553   -4.10340907574908
H           2.90502294969377    3.80333067787941   -4.45801228779104
H           3.24232987962076    1.73237264591667   -5.88890954086177
H           3.07119163239209   -0.08903776172873   -4.53635460476789
H           1.54797136620632    1.71598308587424   -2.56314053808950
H           0.29034861133686   -0.46426411319999    2.13771257411707
H           2.65633400155599   -4.35257813250333   -0.73520843374387
H           3.61659339501555   -3.60405801578911   -3.55521823839952
H           3.77217858991192   -5.24323598453468   -2.74300277137253
