93
 SCF done       -177.217957355146          0.000619578100
C          -2.98515265087591    3.16661260881143    5.38804314658717
C          -1.84877236060619    2.40920523612845    5.57382219625587
C          -1.27702788362108    2.15657740298774    6.83524777216042
N          -0.80064680788769    1.85523223911242    7.83668386859430
C          -1.13455625875552    1.72775122931405    4.57386589109006
N          -0.49028886037819    1.15224291697430    3.81312530209180
C          -3.63450729059645    3.94613216180716    6.43522488994912
C          -4.82182994199337    4.50709830072875    5.91197766252689
C          -5.66217524510348    5.29335722434900    6.65965458944302
C          -5.30956152790821    5.54588211850208    7.99045897422180
C          -4.10774218463736    4.99998003899222    8.49547081339272
C          -3.26001880333507    4.19954151865295    7.74081008980445
S          -3.84595344466207    5.45871390769896   10.15034306382940
C          -5.35714688241483    6.32559192927155   10.15682817758815
C          -6.01039573476164    6.30031575621353    8.97096634101533
Br         -5.92490287571173    7.16454018167883   11.73652073476701
C          -4.97331020555245    4.10667647109033    4.49409468835754
O          -5.87317822616639    4.44715187299218    3.75914104400021
C          -3.80122430757227    3.25043112362277    4.20106988654865
C          -3.58797117962599    2.47098082813361    3.08727272751531
C          -4.41115793932094    2.26294792225861    1.96306072649797
O          -5.48937664035673    3.02826654702616    1.67788918556763
C          -6.00043802076390    2.62050722385393    0.52343904691484
C          -5.29980919453818    1.57038744860437    0.01181603407354
C          -4.26899667447029    1.29850950919446    0.94792049657700
N          -3.34822819574710    0.29676257046718    0.77221182880894
C          -2.66230173688973   -0.48084099113368    1.65458305644038
C          -2.85187949682689   -0.69949264343166    2.98560597322169
C          -1.97547339083442   -1.48643069301306    3.79089825795645
C          -2.26726065501941   -1.47189836738544    5.11414791694699
C          -3.39191810624973   -0.67682642005761    5.44806855165463
S          -4.14695299891205   -0.05626196946994    3.99044433763547
C          -3.82274059207781   -0.31726462909430    6.70590767978730
C          -3.30169062100083   -0.75352976095401    7.94551110971791
C          -3.86610877815041   -0.14468200465794    9.02118934612671
C          -4.86311948694050    0.81083275556400    8.69971816434646
S          -5.07689488512585    0.88653031491634    6.96188936305784
C          -5.53196694292064    1.57826024383961    9.62044307881360
C          -6.52748384452492    2.53692885540273    9.39862627648798
S          -7.30403691116343    2.72811771353440    7.84983083216331
C          -8.44625549182816    3.83102928112477    8.52467873980319
C          -8.26968511426195    4.05719956807664    9.85073216994055
C          -9.12583782460340    4.96917677695850   10.66131025636670
C          -7.14070302457471    3.34900529614208   10.37401436886203
C          -6.70807768633170    3.51257397630453   11.71632233274440
C          -5.43502910460111    3.35774405022509   12.18179904712007
C          -5.05679483446342    3.53346669570214   13.53125836842846
C          -5.91172145118860    3.45173272437143   14.59489298366872
C          -5.49467017841609    3.67770381901025   15.91192747906651
C          -6.23590002127114    3.61318886921858   17.06424993427032
C          -7.64623909254565    3.47046691044033   17.32444649243135
C          -8.70697953570132    3.83999592720630   16.53101325826723
C         -10.05555955066233    3.73363778167877   16.93076926616782
N         -11.17391883723764    3.66937258800277   17.18485242686480
C          -8.64577588286591    4.43779412786089   15.25803012810117
N          -8.71535416228213    4.93115792822813   14.22145792083096
C          -7.78178691805942    3.00364013716978   18.70659935167928
C          -6.51402055349132    3.05909988737548   19.33603928694510
C          -5.51137068295152    3.51734434664830   18.35357689749695
O          -4.33243024748154    3.72446179032458   18.54313140791442
C          -6.31447375554394    2.67831776961321   20.63954291693084
C          -7.41860361303896    2.20428388032316   21.35646402191282
C          -8.67827660760585    2.14139177080240   20.71756061724084
C          -8.88152446467524    2.53762297119793   19.40050001821403
S          -9.89998787740829    1.50236848717912   21.77621875860394
C          -8.71580338476078    1.33102881812246   23.04475032072582
C          -7.47072956980886    1.73234479104949   22.69709163172893
Br         -9.23478761715895    0.63264243754569   24.70702224198025
H          -6.56463001030503    5.70114816772433    6.23224987899676
H          -2.35600689439001    3.80758244594764    8.17595787553719
H          -6.95155776350417    6.78760435775849    8.79418429299215
H          -2.65156245243937    1.93622105349276    3.03006567871139
H          -6.86278109531104    3.14166442330649    0.15615544364066
H          -5.49202457298406    1.04274580786880   -0.89975282403217
H          -3.23002455706231    0.03423277214335   -0.19787555439842
H          -1.84748000264153   -1.02672333464429    1.19639999364211
H          -1.13206321388631   -1.99301633310841    3.35898363259538
H          -1.68273008224875   -1.96563917440265    5.86822691417525
H          -2.52496781633903   -1.49327341613017    8.00672557601593
H          -3.59205743012331   -0.33855186697817   10.04288253273850
H          -5.27504666787076    1.39079390416724   10.65413912181308
H          -9.19885138182418    4.24660123657985    7.88344644236813
H          -9.92602363932375    5.37891239635567   10.05061609456661
H          -8.53992791936474    5.78950669749619   11.07173463553251
H          -9.56574411075933    4.43506636934405   11.50197520827622
H          -7.45440284323213    3.89629633767244   12.40073503275552
H          -4.63059810182915    3.18348496551898   11.48027904373789
H          -4.01000638599820    3.73104698115684   13.72636726831833
H          -6.93398922349205    3.16163090826687   14.41553286415676
H          -4.43524496797174    3.85286054120446   16.07253289467932
H          -5.33596756572728    2.73457004855525   21.09007967671015
H          -9.86014355705342    2.45832698622262   18.95750654971436
H          -6.62163287578279    1.69495562413547   23.35490595990534
