132
 SCF done       -215.144268876837          0.000738230775
C           0.91632961097086    1.39771873812916    0.29502467349505
C           1.01693957428939    0.79443827459963    1.52193261434682
C           2.04357004074220   -0.10476327701310    1.87753327636140
N           2.85613463891307   -0.83736723887017    2.22571914599202
C           0.10324162769654    0.94999928548527    2.58592686088967
N          -0.59644913446769    1.00469368737928    3.49517510299336
C           1.79906625113733    1.15871324625079   -0.83876973504125
C           1.28235056998823    1.84322413397562   -1.96429024369984
C           1.89063057953374    1.81100408883249   -3.19540049172131
C           3.06651725938748    1.06459276976017   -3.32245829161490
C           3.57807032319212    0.38581955523585   -2.19081446121585
C           2.96320135567484    0.41970115707934   -0.94586065819695
S           5.04303037796726   -0.47030585594717   -2.56732673038760
C           4.94773570724192    0.08576121481059   -4.21723030238797
C           3.87631835716640    0.87235346001865   -4.47532544144427
Br          6.27345828540379   -0.42318144003747   -5.44267261773924
C           0.04532256079894    2.56054348908038   -1.58858120571748
O          -0.61726532887271    3.25697879212402   -2.32571509452891
C          -0.13367572897463    2.30680466403724   -0.13599046619338
C          -0.97925473417232    2.96290765639267    0.70837658056369
C          -2.11445448264857    3.78278840158291    0.40674371442969
C          -2.47801565470471    4.77197041617542    1.34337350381027
C          -3.56877550309750    5.56432488802345    1.10408784218672
C          -4.35223247263876    5.36845767818375   -0.05065673577087
C          -4.02869807020409    4.36870550550749   -0.95875419976847
C          -2.91529070345956    3.58892381377041   -0.72974661583670
C          -5.43958963045099    6.31836256646028   -0.03371728636916
C          -5.32993750304602    7.10640739952392    1.12594992757315
C          -4.13060514757202    6.68781950522824    1.94375231501892
C          -4.54984393458033    6.18832685470839    3.33935605689918
C          -5.56003050252968    5.04876347886721    3.28295399275638
C          -3.11928795805056    7.84019536089935    2.09049208855669
C          -2.66224407977786    8.40067016933085    0.74909792883901
C          -6.24509998891128    8.09423505418059    1.39344151941064
C          -7.30369597086810    8.31741738073426    0.50115726347811
C          -7.40351817050662    7.51542537051048   -0.64470628206973
C          -6.48484570032637    6.52525150372115   -0.92335098652969
C          -8.30456434219349    9.34137170261275    0.71412301088372
C          -8.25319399113600   10.32471990600607    1.62524538724089
C          -9.29573305146877   11.31925391765035    1.82155247542129
C          -9.04426443128768   12.62647261169960    2.27023525836126
N          -7.85003882947252   13.28184744526824    2.52306053514880
C          -6.58346699695905   12.97533503311690    1.89168285782722
C          -6.71045693104110   12.82378166954163    0.37727593549457
C          -8.14339451804626   14.52263935680831    3.05331279534779
C          -9.54569184511794   14.70539274678685    3.07325873338464
C         -10.12124820997284   13.48915481467861    2.57956368614558
C         -11.43976826898368   13.10040273061398    2.39191227377577
C         -11.68354279538269   11.83399504668453    1.90020942594867
C         -10.63322352641500   10.96831672367457    1.63320679959831
C         -10.11374035655838   15.89389815593375    3.50588450115487
C          -9.27178159216136   16.90215907456122    3.93243514668065
C          -7.89959450661726   16.70750185870787    3.97045464322313
C          -7.29072483864958   15.51775414167281    3.56247674158843
C          -5.86926094307251   15.32078108773056    3.79567979993221
C          -4.95792239896209   16.31251312906598    3.78965706683283
C          -3.57554044749867   16.18906694464967    4.13851817481748
S          -2.75327680432720   17.60260651615592    4.71861656125057
C          -1.30314200820702   16.70612315769530    5.03397552331684
C          -1.46298073323281   15.36363803975993    4.69643523418757
C          -2.74860144103095   15.07140128511289    4.17857713452899
C          -3.22252158613046   13.78230606227729    3.60966646868385
O          -3.39162886344270   12.75846867088762    4.21088826882166
O          -3.48823320468617   13.84410611307476    2.28217798597900
O          -0.38420107478284   14.55731698245778    4.83892272017247
C          -0.48982796245723   13.18126723323912    4.55945669305821
C          -0.12795709237370   17.30318435909079    5.56331474381595
C          -0.01777797889202   18.61301362448189    5.87398182679119
C           1.14119172621561   19.24968017442163    6.41102350170322
C           1.23468404533150   20.59276387116797    6.74324439120741
C           2.54198169406911   20.85232505087803    7.25246806982776
C           3.13188886123560   21.99907637966032    7.72045656166162
C           4.46605722248096   21.91429610125369    8.16445937939444
C           5.32372025031400   22.86967343843522    8.68648804364331
C           6.58375155591960   22.25595627839163    8.98152422812080
C           6.49742174345923   20.92089185050200    8.63797719763043
C           5.18739253794855   20.65864004804780    8.12337691730666
C           4.59962025275102   19.51255895603590    7.65823883950823
C           3.26221579732049   19.59513093784428    7.21654032135365
C           2.40415050125656   18.63617630764572    6.70694130550783
C           7.74890243828205   22.89852717347230    9.54011594264297
C           7.83704826629540   24.18004724298608    9.88601253503797
H           1.47115022048758    2.34399348506072   -4.03427344214529
H           3.39535196809707   -0.10904271742827   -0.11289209164835
H           3.66419685889194    1.30106790254090   -5.43772714109118
H          -0.75851598999733    2.89060314849848    1.76795630375372
H          -1.87550845876643    4.90660832022596    2.23047616373440
H          -4.64154840504654    4.19878192498058   -1.83081202354487
H          -2.67505036319453    2.79472106415406   -1.41589680442846
H          -4.97840616046569    7.02511459360185    3.89453038428787
H          -3.65804791361279    5.85538947329252    3.87410242935663
H          -6.46815175341127    5.36403565721666    2.77363479823786
H          -5.82227351418082    4.73295290198429    4.28985516672899
H          -5.14761633676590    4.19362382408006    2.75192201484445
H          -2.25277350431712    7.47585871930687    2.64633002891005
H          -3.57902669791774    8.63807110773023    2.67698610952858
H          -2.17644822017536    7.63073883788824    0.15328867427753
H          -1.95582844038851    9.21240748867974    0.90625006649337
H          -3.50897030133132    8.78665286311699    0.18566666802204
H          -6.15749442959749    8.68589720330272    2.29146302827793
H          -8.22363721937716    7.68691483649124   -1.32767502943640
H          -6.57966489992369    5.92225698344105   -1.81395522986787
H          -9.14172119766956    9.30944764288529    0.02780785825760
H          -7.39932408186230   10.40444837442852    2.28066938768162
H          -6.12889325695260   12.08372001364725    2.33036475078258
H          -5.91544775265734   13.81335761980594    2.08470544510610
H          -7.31454003472429   11.96243855497477    0.10813620869629
H          -5.71911590647387   12.69709743778841   -0.04974184091883
H          -7.16537833504832   13.71577652841192   -0.04910497611666
H         -12.24833054104587   13.77237216424994    2.63476884984226
H         -12.69812538033093   11.49895375183191    1.74494823858496
H         -10.85755122303189    9.96350084128385    1.30847280175615
H         -11.18537281335678   16.01933972641703    3.51263454203754
H          -9.68094065273207   17.84110897293234    4.27367758955503
H          -7.27906004197607   17.48662438315813    4.38581565804846
H          -5.56636581334535   14.32280201513079    4.08179251860123
H          -5.27001215026309   17.32252304899718    3.55900183493057
H          -3.33395928878725   14.72718229297072    1.92022128144977
H          -1.24484590494667   12.69474317971773    5.18140659000925
H           0.49257093306588   12.76663364976404    4.78119743493899
H          -0.72602077041314   13.00303439829693    3.50516186699719
H           0.69610373879181   16.62063246210497    5.70939686236654
H          -0.87528090847689   19.25630289315421    5.71202136785526
H           0.45429295405051   21.32433575365344    6.63915858105182
H           2.60062994232001   22.94014564717693    7.75347511257964
H           5.08543992155886   23.90535765509897    8.84642242066161
H           7.27804262773522   20.18866242868977    8.73777689745990
H           5.13028564094128   18.57104118496729    7.62579731108339
H           2.63946154565142   17.59847821484941    6.55511924004060
H           8.60542806734181   22.24894529271925    9.67386663234357
H           7.01458851483342   24.86516189849679    9.76966986901751
H           8.74309368666436   24.59197865307350   10.29534738571890
