95
 SCF done       -156.185732497991          0.008292378071
C          -7.30912786597120   -4.20866455692740    6.73153223560359
C          -5.99330041409948   -4.18057941894604    7.15214224188161
C          -4.95686097677034   -4.89747285723562    6.53242319073720
N          -4.08147625364697   -5.47693763100748    6.06199591828404
C          -5.55156800732381   -3.44469031062750    8.26540338972740
N          -5.14324702926441   -2.85149572537663    9.16188470815840
C          -7.80144736304267   -4.89572540313106    5.53341428562601
C          -9.20403607900743   -4.72857991036791    5.45899137279936
C          -9.95649098425233   -5.17549542925271    4.40321912648986
C          -9.28707409953288   -5.81206849563503    3.35282368176365
C          -7.88950847905364   -5.98910650954928    3.43930578693638
C          -7.12853518131654   -5.54372348598974    4.51581889865012
S          -7.26702691916881   -6.81451350697258    2.04279688867564
C          -8.87324322374712   -6.90729695392382    1.37948074400100
C          -9.82981025924501   -6.34741172587670    2.15153726123854
Br         -9.14585403396403   -7.77319490222998   -0.25287079596323
C          -9.65209246879177   -3.94527932327800    6.62710844186392
O         -10.79301340953812   -3.80700915308564    7.01529572895846
C          -8.40360619815955   -3.48479466539460    7.29093169444851
C          -8.42293475773839   -2.48856036480558    8.26780017694484
C          -9.35539708055753   -1.45756623646334    8.22665086383007
C          -9.96334235834244   -1.03825219720090    7.04449774775467
C         -11.08481049289813   -0.21506540693482    6.86587707948679
C         -11.48335026162624   -0.07722764987774    5.55544113316966
C         -10.66399746739868   -0.75805178909429    4.64644443536220
S          -9.32114097692463   -1.49626803437358    5.47972456587100
C         -10.81198077553201   -1.05070772688307    3.29403528472559
C         -11.84924237799722   -0.75219045846627    2.39670896471477
C         -11.69309197932400   -1.33405504164621    1.16831678650708
C         -10.51643815239158   -2.10538889518766    1.03484429604565
S          -9.60971380733766   -2.06595653515164    2.53245702496883
C         -10.12106994333123   -2.81551682969088   -0.07598254529646
C          -8.92667062604437   -3.52285234469424   -0.25437670221486
S          -7.55297753650399   -3.33812702025591    0.81646190459280
C          -6.56536570027709   -4.26246139933443   -0.24690991252046
C          -7.21842058288080   -4.71182089351849   -1.35130711322006
C          -6.58676789945315   -5.56221736217069   -2.40138799162687
C          -8.59257347984070   -4.32747763027294   -1.35789071940391
C          -9.52385447025702   -4.82708907715367   -2.31810389062633
C         -10.81892278450660   -5.11742011637005   -2.04648692193785
C         -11.71250604502779   -5.76733413827225   -2.94295325851931
C         -11.64859018394415   -5.76669704056929   -4.29792805549241
C         -12.45951182993410   -6.61925021538585   -5.09706622861276
S         -12.99878188308215   -6.14889021067879   -6.68220440737933
C         -13.89270344496742   -7.60782622756215   -6.83563394762355
C         -13.78782322172051   -8.42876693763592   -5.75582892131971
C         -14.45006879447922   -9.76309939715215   -5.68168221149698
C         -12.94656566446262   -7.87587854540061   -4.74345703494864
C         -12.46855947069485   -8.53248291809098   -3.55466499266517
C         -13.09539730800611   -9.42493995388117   -2.76394597062549
C         -12.45495626448699   -9.93908791513161   -1.59023500020338
C         -13.07431284895262  -10.70455319153083   -0.67197959662534
C         -12.49596424226256  -11.19266531794348    0.55503089892158
C         -11.23101241131417  -11.57022120053770    0.78310004747654
C         -10.15381120658980  -11.62222487816297   -0.25119707920470
C         -10.81166720240970  -12.03731956020907    2.16143835580430
N          -9.75513909728652  -11.24149086216094    2.73776245948988
C          -9.98360307896379  -10.12474057771887    3.49745794353360
C          -9.05049532937263   -9.26968465148329    3.91012699483430
H         -11.02458653389519   -5.02537240178965    4.37900223492723
H          -6.06305692230581   -5.69846046625831    4.53072647519832
H         -10.87387801856819   -6.32271881244606    1.89760927467307
H          -7.70424835838968   -2.50291656013019    9.07587148136852
H          -9.57620814254613   -0.90041144766284    9.12701612479613
H         -11.61562644087990    0.20494884106104    7.70225171932267
H         -12.35116769145011    0.47773051411855    5.24515483109422
H         -12.68621343344134   -0.13777891958797    2.67668846304672
H         -12.39159844427176   -1.23436246180279    0.35677885478905
H         -10.79608443854845   -2.80133479576603   -0.92210970839672
H          -5.53910975825624   -4.43638139407941    0.01514115927304
H          -5.54440050652821   -5.74951127669315   -2.15775465808588
H          -6.63514950061136   -5.06848988606166   -3.37098419358055
H          -7.10704136458854   -6.51619712397380   -2.47811335180945
H          -9.11712097783736   -5.10897244653711   -3.27861485804771
H         -11.18232258471413   -4.98318611621293   -1.03647436212196
H         -12.51919957042313   -6.31640104243230   -2.47538607319633
H         -10.98992194212740   -5.08164067819864   -4.81440959895200
H         -14.45016988302905   -7.78297089610996   -7.73533050082181
H         -14.75611370499954  -10.08862833611528   -6.67211112954607
H         -15.33760530040676   -9.71306973114600   -5.05125585233681
H         -13.77030978254525  -10.49796807211374   -5.25675808853895
H         -11.47005952713707   -8.22924881452463   -3.25561158986971
H         -14.11426631478194   -9.73112202330721   -2.95057924734893
H         -11.43697549811725   -9.61515451930419   -1.42962175672070
H         -14.12403418569124  -10.93903520350574   -0.81569913251207
H         -13.20659936911050  -11.29798451751751    1.36970809493666
H         -10.57478607359739  -11.73941133319332   -1.24704802926697
H          -9.48195829842213  -12.45587704697625   -0.04988068953232
H          -9.56191773347769  -10.70600696882157   -0.24604427086046
H         -10.45750961377964  -13.07433503309807    2.09730287925999
H         -11.66314695329175  -12.00766803086312    2.84466084322136
H          -8.83783439580526  -11.33004043361453    2.33275931107311
H         -11.01380363210755  -10.00225572143286    3.79760092255156
H          -8.01888881597184   -9.38252110500198    3.62314266295126
H          -9.29176400386687   -8.44381902513194    4.55928249666210
