93
 SCF done       -191.176245125663          0.000577946369
C         -10.29012913227200    2.96547865988784    4.21410014564070
C         -11.19407331374669    3.86212551602917    4.70721079492155
C         -12.16967342831536    3.55282676455200    5.68092386818918
N         -12.98238079252315    3.35858523556963    6.46702623216451
C         -11.29125017564588    5.21370478610092    4.30716168353797
N         -11.43533803344625    6.31871128855646    4.03455992149191
C         -10.17112113858495    1.56537805780755    4.59350789921131
C          -9.15823242375025    0.95186162734288    3.81285765251841
C          -8.82048378339866   -0.37369736460002    3.94734728164921
C          -9.50810578611767   -1.13079656335437    4.90040032850900
C         -10.51684940784553   -0.50992514359225    5.67816311017989
C         -10.86182788836222    0.82741053482934    5.54034960940117
S         -11.23943546886155   -1.62700653701999    6.79554277613323
C         -10.19312659943928   -2.89403072248122    6.21221371603148
C          -9.34478983871301   -2.50335577075895    5.23084841216775
Br        -10.31880371482773   -4.61134756403618    6.95255543975533
C          -8.58178598619780    1.94122623280000    2.88479775084935
O          -7.76403882084731    1.74540138462780    2.01821547208042
C          -9.26564704260027    3.23218390754187    3.20499219369228
C          -8.92457709983128    4.39175131216088    2.62472286092805
C          -7.78520325517484    4.46929614052967    1.69275989035783
N          -6.57430281351489    4.38645502702022    2.23739536531256
C          -5.55309831528790    4.41399656169293    1.39576667823140
C          -5.71537030034758    4.51852615750909    0.02777072300783
C          -7.02926290882703    4.65116255135408   -0.44578988585017
N          -8.05694533464294    4.64002822142749    0.41439845964195
C          -7.38572294339043    4.81272295443008   -1.83135403448197
C          -6.54404998802568    4.64312511715350   -2.87935494471057
C          -6.92533173048179    4.79276095235330   -4.22931716844880
C          -6.08891311472165    4.54463262574497   -5.28388727071346
C          -6.38339769237006    4.66920311191848   -6.66777710034522
C          -5.35876083954243    4.32546474954068   -7.49201801198579
C          -4.19131906039403    3.90256074014288   -6.81067969453639
S          -4.43649446719577    3.97695651004461   -5.08166792871720
C          -3.00309289910295    3.45798142578560   -7.35023594470737
C          -2.65020295714007    3.32257176788769   -8.71339136687392
C          -1.40213369370759    2.82141916431464   -8.91080836004579
C          -0.69236342278898    2.52916427427633   -7.71526408350801
S          -1.67933065764681    2.93520723734411   -6.32632472517382
C           0.56791078181816    1.99580677769360   -7.64539867958889
C           1.29902250333527    1.68405728813469   -6.48755160749385
C           2.57732022914927    1.11239275347357   -6.47410385528387
C           3.25818502084119    0.82227085181896   -7.66283169116342
N           3.78370383938765    0.61407418014850   -8.66209626164091
C           3.06858462949596    0.90766183594505   -5.16185058616406
C           2.15637492928107    1.34337281490014   -4.20582888395530
S           0.69848593149737    1.97769213135101   -4.86551368175208
S           2.68074714758393    1.18196542766459   -2.55931288275978
C           4.16167931957099    0.51080842373410   -3.15175500454370
C           4.24869164638230    0.40641915389647   -4.53931342633362
C           5.49186131569493   -0.14387333615773   -4.93558553344597
C           5.83564522892415   -0.51177045150446   -6.24538339682613
N           6.14510008823186   -0.86191147867564   -7.29299304274117
C           6.32479375299774   -0.41491065492465   -3.85354832063266
S           5.55559013441519   -0.05372807488566   -2.32632940915914
C           7.63205706771304   -0.97125304171662   -3.84941174644646
C           8.59168654330354   -0.90971574638886   -4.80500289593549
C           8.75743807870837   -0.11360963025443   -6.00681856488444
C           8.30732447670266    1.16157553282135   -6.21519038418182
C           8.64552936555059    1.93726833557818   -7.34489784701995
N           8.90419011364668    2.61681017487137   -8.23182730867402
C           7.52337735640876    1.87895054293136   -5.29104450344091
N           6.90304088537327    2.50366381637977   -4.55411478033995
C           9.71327310746206   -0.81451253199288   -6.85286376185996
C          10.31729919501914   -1.85508179455421   -6.10124410528675
C           9.71585172129880   -1.89652912545627   -4.75740123557806
O          10.01278729887665   -2.59927969968664   -3.82133064889553
C          11.28785990024088   -2.67399496508971   -6.62716984945501
C          11.66605628650926   -2.46469925196170   -7.95731659348973
C          11.03768059670764   -1.43796557420646   -8.70513230906866
C          10.06400326298249   -0.60287919793741   -8.17196854536988
S          11.64153074971765   -1.37093991511458  -10.33092332493927
C          12.72081791523264   -2.69716545860059   -9.98965325457416
C          12.63250057054394   -3.17116324798921   -8.72380780052208
Br         13.86042164669090   -3.33249677350239  -11.33477235290118
H          -8.04640035029461   -0.81077827670042    3.33629298364603
H         -11.63606818485708    1.25355456244409    6.15627246410347
H          -8.63270844284350   -3.15524500565695    4.75869428818122
H          -9.44773850473699    5.31682818587546    2.82077299353179
H          -4.57281160115008    4.34761459838272    1.85034877878816
H          -4.86678656694393    4.52133195388108   -0.63486064889199
H          -8.42548406802325    5.05290067712827   -2.00485315326232
H          -5.51451084151193    4.35648746115950   -2.70634042456402
H          -7.93487867790297    5.11343104298136   -4.44788468071182
H          -7.34777387465382    5.00827466190661   -7.00251516828586
H          -5.40671198734969    4.35709381988146   -8.56564451969013
H          -3.32538804338951    3.59511695486799   -9.50433171079779
H          -0.95903927381694    2.64459518732096   -9.87462699371881
H           1.06630363125420    1.78015655494593   -8.58233650599115
H           7.88755606877763   -1.56859810672026   -2.97866572268201
H          11.73864901121682   -3.45372181560304   -6.03354657749360
H           9.59775668591202    0.15582682121864   -8.77818551028450
H          13.22293865900406   -3.98534030188340   -8.34503956403498
