108
 SCF done       -205.343655718601          0.000759140696
C          -7.62566795952834   -1.59202599374489   -0.68002842148139
C          -6.79515430064808   -2.67769822406012   -0.60149500325342
C          -7.19297545628754   -4.00397992490794   -0.87271551466206
N          -7.45440395969602   -5.10132138618749   -1.08453305357282
C          -5.43007571791773   -2.62239914837677   -0.25044246583488
N          -4.32051917128221   -2.65061161987580    0.04295590044859
C          -9.04526268080998   -1.62246332354149   -1.00397991285451
C          -9.55302074575285   -0.29862346362358   -1.00097394919466
C         -10.87330762173210   -0.00901841126516   -1.24358367449449
C         -11.73842864585112   -1.07739295302376   -1.50024471386033
C         -11.22226263529898   -2.39623078894793   -1.51190603844476
C          -9.88732473475416   -2.68901814343942   -1.26797928886508
S         -12.46241958335769   -3.56433526762702   -1.85526848754362
C         -13.64039685940769   -2.28419705083712   -1.97319592040799
C         -13.13390408732650   -1.04497901264767   -1.76770856582489
Br        -15.42625122522749   -2.70469797272310   -2.35894307104289
C          -8.45866312170880    0.64464293742047   -0.70689911491773
O          -8.48301169842495    1.84849602637381   -0.81101208116295
C          -7.26883545044208   -0.20610736264739   -0.41026637032031
C          -6.08016826049182    0.30939248667697   -0.02662426790858
C          -5.92814867327885    1.70529940085265    0.35712520162015
C          -5.06246512265106    2.52567997408093   -0.37702316418473
C          -4.95357037578670    3.87688170920126   -0.12674515333705
C          -5.68216762929545    4.46797780995815    0.90180140704404
C          -6.49016929606831    3.66831898127496    1.67469019565430
C          -6.61807145954882    2.29517124085347    1.41791534046213
N          -7.39363131277875    1.71146192987681    2.40462370920009
C          -7.70726136314772    0.32182738584634    2.57079053573973
C          -7.82559418692460    2.64061605076025    3.32061052526720
O          -8.45948349593283    2.38757024593551    4.31411907237194
C          -7.34550124290296    4.00931498921820    2.85507274890217
C          -8.57531307063631    4.86057755292781    2.46841508040044
C          -9.29550141703357    4.19363784525513    1.29096107791106
O          -9.83069867813003    3.10996704691538    1.29003048248234
N          -9.21866956405171    5.04289681879672    0.22575641964014
C          -9.71760055871938    4.72404708341579   -1.08310422318907
C          -8.57466749475686    6.22430685143178    0.55956976847671
C          -8.30432241409814    7.31591338858258   -0.23524584816569
C          -7.63923947005140    8.41678874471127    0.32958570648868
C          -7.27834126510238    8.37568322946491    1.68215289080157
C          -7.54958010913608    7.26980683702198    2.47124413668389
C          -8.19683493260488    6.19148357364117    1.90836321680109
C          -7.34644669308834    9.54171634897237   -0.52498373475130
C          -6.77963100278772   10.70974885253147   -0.15093441621443
C          -6.48940221679984   11.77508853119051   -1.03920507110564
S          -5.77261144758647   13.25186626286920   -0.42522681415726
C          -5.69312368840542   14.01337145754951   -1.99699606133490
C          -6.21328378078710   13.13494768946111   -2.95164051762523
C          -6.65372976555552   11.89772188002316   -2.40672683686070
S          -7.27188342568713   10.89769199797262   -3.68080988734258
C          -6.88906674173085   12.20630138253140   -4.80022826521955
N          -6.36878587743992   13.25225538028691   -4.29437487081960
C          -5.16876787678330   15.30039625445067   -2.16588910361459
C          -5.07238825840159   15.91224244526583   -3.39167893625560
C          -4.55000396334701   17.18997775926685   -3.58280194709411
C          -4.43643260133041   17.79094775717200   -4.82096539044416
C          -3.92356239908610   19.07458639535843   -5.10910740275651
C          -3.92926018900387   19.39333815330206   -6.43729526740545
C          -4.44722772904491   18.37232938518350   -7.25962044134954
S          -4.93314778647156   16.99568365937574   -6.30136816045699
C          -4.58767681156733   18.35688520189756   -8.63938785269667
C          -4.25435751809359   19.35167369504229   -9.58020189900595
C          -4.52036088519200   18.99582207696785  -10.86950622213122
C          -5.07954758279370   17.70007613963159  -11.01466418886609
S          -5.25398417093926   16.95464532916158   -9.43901881592626
C          -5.42343659052585   17.11820470707265  -12.21130140814463
C          -5.98052985413926   15.84406101377913  -12.42545914227253
S          -6.29851177670923   15.30045967820457  -14.07000558001389
C          -6.92404641151073   13.77108843298415  -13.59133417168418
C          -6.90183007658398   13.65788836287645  -12.22189165784810
C          -6.37415322834867   14.82150853770676  -11.57686566137285
O          -6.38062630886551   14.66041491791803  -10.23841688205725
C          -6.89356391507517   13.42375405915330  -10.01716190246630
N          -7.00362082509498   13.01525480701213   -8.67336368793192
O          -7.44130533125657   11.89335741685796   -8.46728710979861
O          -6.66063036764058   13.79454020276921   -7.80847565494012
C          -7.23082485607224   12.76066525587578  -11.16876600484100
H         -11.22939956213587    1.00850807060507   -1.21774900158033
H          -9.54395588857265   -3.70986423235859   -1.28457329130206
H         -13.71856903661595   -0.14393365975105   -1.80170341560816
H          -5.18179748237123   -0.29447524212284   -0.03479232387935
H          -4.50498249898959    2.08213828428252   -1.18863040899259
H          -4.29965892098452    4.48215595637104   -0.73505604590369
H          -5.60017699484189    5.52607010195253    1.09708658962149
H          -6.81511010545663   -0.29254031715742    2.43465268084387
H          -8.48090644016325    0.00600648712174    1.86587325923478
H          -8.08988989284840    0.20357399387417    3.58564491313453
H          -6.79854803974468    4.52019783623820    3.65162509317735
H          -9.23752436163572    4.91728180826351    3.33722832719256
H         -10.01903495949461    3.67888231693969   -1.06577880124494
H          -8.92882266398591    4.85200085427078   -1.82531969657125
H         -10.56970834728098    5.35774604734349   -1.33989868451168
H          -8.59262222402750    7.33803639108906   -1.27467807750549
H          -6.76867170145835    9.21613406082964    2.12444558952974
H          -7.25555984997883    7.25598805877830    3.51020438836958
H          -7.61602950045805    9.41410970557941   -1.56543720058753
H          -6.51228953868717   10.89264899906954    0.87977443364714
H          -7.10029853935843   12.08659708748673   -5.84397893149242
H          -4.82491571833740   15.81369252099253   -1.27732975774222
H          -5.41941083088677   15.36758866599799   -4.26028971195242
H          -4.20777412281887   17.75151238453134   -2.72244023036153
H          -3.56527351409533   19.72502678629729   -4.33038178284104
H          -3.57650149444868   20.32639321909489   -6.83897992911849
H          -3.83046801283407   20.29599761222614   -9.28860530870187
H          -4.33318227818298   19.62141581672401  -11.72439700235679
H          -5.24290225161915   17.70169414887943  -13.10420035171829
H          -7.25990315453348   13.07261704482308  -14.32811199680873
H          -7.65161307075192   11.77894767102628  -11.23313746891308
