108
 SCF done       -198.051844585208          0.000279264393
C          -4.10572274360431   -2.52348922387039   -2.39991263575126
C          -2.74872401299681   -2.69546020044893   -2.32465585697380
C          -2.08279411899194   -3.88523986844052   -2.68670025520730
N          -1.48802218979648   -4.82477141325652   -2.97165642973316
C          -1.83433866727942   -1.73533793270254   -1.84053500681290
N          -1.03017459226973   -1.01941143065347   -1.44117944045708
C          -5.07038443873622   -3.53942261807831   -2.79497588573651
C          -6.37447712141348   -3.03476925995028   -2.57382736765524
C          -7.50651679474624   -3.76317752820043   -2.84841220240166
C          -7.34339539379579   -5.05197552323790   -3.36646368327786
C          -6.03549974228080   -5.54642666422722   -3.58858399225540
C          -4.89118387156643   -4.81017402250193   -3.31074772503022
S          -6.06309786679230   -7.15669312762718   -4.24108533405794
C          -7.80628064593406   -7.14532676361741   -4.20442005689142
C          -8.34253377843294   -5.99603157507483   -3.72957541668000
Br         -8.75339433366635   -8.65090862011374   -4.79896774178151
C          -6.29483384817290   -1.66083744057035   -2.03473004481240
O          -7.23623115664258   -0.95506699808284   -1.74940651927101
C          -4.84443743147463   -1.33262691181278   -2.00641187385141
C          -4.29601352516270   -0.09521543378245   -1.87094584039429
C          -4.90029755625567    1.12048059311858   -1.40393211527555
C          -4.39690573302065    2.33620129836843   -1.90542686188012
C          -4.92446101652238    3.52080164307036   -1.46428610045920
C          -5.93346380791371    3.53040983445787   -0.48070554365158
C          -6.41329023873751    2.33753861386240    0.04502096262101
C          -5.90173287506264    1.14471668199554   -0.42182643735766
C          -6.26600280171885    4.90323227536519   -0.17990472369802
C          -5.47353076209808    5.74361771956584   -0.98539589202400
C          -4.56187393746766    4.92874080021082   -1.87176636559044
C          -3.07973089160427    5.23505410251993   -1.58563203556117
C          -2.69919406510796    5.01162414427296   -0.12692153984913
C          -4.86216110524628    5.17369649804752   -3.36294862348642
C          -6.31659227040236    4.90050019345023   -3.72717093690283
C          -5.57900451285406    7.10758986692811   -0.89595550064701
C          -6.48076281460301    7.67568330510383    0.02162731446655
C          -7.25535310815631    6.82128897493963    0.82657665495557
C          -7.16390821465982    5.44975379519957    0.72945385524065
C          -6.63001726215575    9.09543438411231    0.18480478913817
C          -6.09907076711100   10.04009396305639   -0.62930738076166
C          -6.22307962065485   11.44658169948995   -0.46279540912577
C          -5.67594963589861   12.31077651731929   -1.44710662950616
C          -5.75483258448121   13.74306741502412   -1.35408026859248
N          -5.24611795426927   14.50553734278742   -2.32554674946184
C          -4.66545300120275   13.93610599901672   -3.36050181437786
C          -4.56378362581054   12.51353487467869   -3.44253564305276
N          -5.06387559649507   11.74784703319515   -2.50336664848098
C          -3.91567259743297   11.90561943234125   -4.54721724871050
N          -3.38867809162596   11.43700488649152   -5.44998147888128
C          -4.14202559010609   14.75263497639234   -4.39067641992423
N          -3.70955808356109   15.38812141229421   -5.24097134408892
C          -6.36865094607774   14.40143254766547   -0.23955848025251
C          -6.91030410590233   13.53153600191180    0.74155634173064
C          -6.84788333223043   12.09154623435880    0.63082858055335
N          -7.43044181413024   11.49824371447582    1.67294388839986
S          -7.99626178354080   12.61188511160483    2.68389077433513
N          -7.53144080686199   13.91053806052555    1.85067187085612
C          -6.38002511018067   15.79979809180855   -0.22104056202881
C          -6.85528668559185   16.71447270418504    0.69825761398199
C          -6.74520595954900   18.11287547958997    0.49839421314068
C          -7.25072769903284   18.87588680565362    1.51006063068613
C          -7.78350772897985   18.10735587917996    2.56174918897858
S          -7.63428760788661   16.39734776985058    2.22758423635948
C          -8.36698878952574   18.54845723595191    3.74073708768800
C          -8.59333212408485   19.86738680456525    4.18101362887197
C          -9.19546034087949   19.94105162012093    5.40202523728463
C          -9.47736125823185   18.68388474923643    5.99751582731545
S          -8.94400594169299   17.40646657042341    4.92773951914652
C         -10.05745202579389   18.53594583738700    7.23439302601558
C         -10.39475506553869   17.39647041294425    7.98515300749557
S         -11.01029524950218   17.75115297640504    9.61795847698108
C         -11.20552130177711   16.08374202311743    9.99775534900891
C         -10.83614108908096   15.30379534531832    8.95670586535841
C         -10.37756048223429   16.02226028648174    7.80472017662347
C         -10.05735319616686   15.04197439590273    6.79635902976253
C         -10.28402128931778   13.79782471889805    7.27413405161488
C         -10.78456180514593   13.84939688106674    8.66206280888531
O         -11.08402364147482   12.92862387451636    9.38774179514058
H          -8.48713451925694   -3.35115981230818   -2.66852851516534
H          -3.91681648358076   -5.22707867696362   -3.50335192918538
H          -9.39869474482582   -5.81903714051126   -3.63944047572375
H          -3.26537265381356    0.02001975634436   -2.18908775390836
H          -3.61342633647805    2.31836924206999   -2.64948373134956
H          -7.17249044101479    2.34028238847248    0.81211520790063
H          -6.25006001469884    0.21697067495755   -0.00027645702275
H          -2.87942666545919    6.27316973654711   -1.85791031786977
H          -2.46192231649111    4.59887679396529   -2.22234551071422
H          -3.28885899418027    5.64994497842665    0.52767759471260
H          -1.64752677889139    5.24331646828071    0.02309933568998
H          -2.86636223901795    3.97609121649759    0.16129335046525
H          -4.21171631989200    4.53112382552740   -3.95982439471785
H          -4.61738571140371    6.21030926714518   -3.60267617056789
H          -6.58108405348481    3.86669066074481   -3.51511349115033
H          -6.47593672378410    5.08558550878931   -4.78679525524136
H          -6.98343309386595    5.54779431512678   -3.16170057843665
H          -4.96097796077503    7.74203756432069   -1.51156825386647
H          -7.94324692487954    7.26298048818036    1.53305544003012
H          -7.77294215706655    4.81240397868684    1.35270266402923
H          -7.22832225139909    9.41979744616246    1.02482991548521
H          -5.53760607401687    9.75555249257314   -1.50761805826228
H          -5.91794675345622   16.24104388227502   -1.09735477024672
H          -6.29169714451877   18.51213772882737   -0.39180247554271
H          -7.24661935753882   19.95105408612796    1.51931034868530
H          -8.31011683934974   20.72138072274504    3.59268701876692
H          -9.44701035483993   20.86098241330601    5.89937880242406
H         -10.27960060510463   19.47155158437024    7.73534211703968
H         -11.57999483639531   15.79298639658380   10.95962217456848
H          -9.69955765016161   15.26541256892101    5.80965581605541
H         -10.13464942623096   12.87395958746118    6.74621461123531
