86
 SCF done       -168.498633286247          0.000660631279
C          -5.36177659933707   -2.75347848946530   -0.51541399739563
C          -4.57828008225508   -2.44916355227714    0.57137450148388
C          -4.08076399582207   -3.40351286394464    1.48151964884256
N          -3.63634959797684   -4.13125730696717    2.25092474000887
C          -4.16038597788618   -1.15261795192171    0.93213527087532
N          -3.78451485162318   -0.12910201477864    1.29396317973613
C          -5.83536831156330   -4.08485635761538   -0.87342657180385
C          -6.63177018891043   -3.98988335026727   -2.04103059098411
C          -7.22812954348978   -5.08050779760919   -2.62411255182958
C          -7.03917097645664   -6.32785135199317   -2.01975041889148
C          -6.24158847389116   -6.41480315618327   -0.85388914277829
C          -5.63206645493534   -5.31206835323403   -0.26853854321758
S          -6.13506946288443   -8.04937274831048   -0.27379661719063
C          -7.15130494373226   -8.58540326077435   -1.58580201579671
C          -7.55022376819598   -7.59376896263553   -2.41688506734171
Br         -7.58676346613282  -10.40300651531857   -1.73508101768615
C          -6.68485352090149   -2.58653109318137   -2.48889910231411
O          -7.13371051534997   -2.18146182171037   -3.53631272535491
C          -5.91779704841826   -1.81550384633309   -1.46773499530157
C          -5.68164338095848   -0.47428254933323   -1.54004552074870
C          -6.45288119488133    0.41716252027613   -2.32621336606289
O          -5.90817193082675    1.60058890762288   -2.72993117720669
C          -7.77491583121085    0.39011011845781   -2.73108543717623
C          -9.03887720017437   -0.35382216908818   -2.62692735473075
O          -9.32375659848913   -1.36079115154830   -2.03435469713191
N          -9.93499234570704    0.42997123932953   -3.34838841842019
C          -9.41601757574428    1.61910015488843   -3.85915379350985
O         -10.04046709182788    2.43500699436945   -4.48556951682486
C          -8.01567570789024    1.59277797204320   -3.43045473570662
C          -6.83299361545560    2.31390864556004   -3.41969161718247
C          -6.52404950692866    3.57241315971535   -3.99879047515845
C          -5.32347070499271    4.18400957083161   -3.87838183712674
C          -5.03085547561894    5.43180243440639   -4.50537110363718
C          -3.87927075697606    6.12563999714917   -4.42358923943602
C          -2.69306396804283    5.75078081143721   -3.60810152059897
C          -3.74142721740181    7.41733081698337   -5.19823582854469
N          -3.92921396731166    8.57809904141869   -4.35186954905673
C          -2.95307881379927    9.28177568210848   -3.74555045976139
C          -1.61278368172954    9.06857276319266   -3.86837439597408
C          -0.62549159707552    9.85387397143059   -3.25296046408159
C           0.70785240689441    9.52593241165246   -3.31259829244237
C           1.82174970158731   10.20305987930014   -2.76710638958626
C           3.01738645046055    9.57815478977485   -2.97929518392001
C           2.90655824065014    8.36816058177204   -3.69564614661603
S           1.24617720253590    8.05686319269186   -4.12003159773432
C           3.87819913489680    7.44721905006301   -4.05241127507150
C           5.26915159831518    7.45576172875280   -3.83805215425298
C           5.90173236285392    6.34423359770304   -4.31451928283483
C           5.04034466523875    5.39629513681606   -4.92413664290281
S           3.39450958274267    5.98477530475913   -4.88261907558536
C           5.42632120684217    4.19362707916179   -5.46488215616178
C           4.60837081999121    3.20889270244869   -6.05016827910944
S           5.35960908424524    1.75684289374787   -6.70650168575555
C           3.87541027217048    1.04562545483495   -7.20694796779484
C           2.82608256919975    1.87453857248586   -6.89179719466600
C           3.24115044473319    3.08383357638775   -6.24523159462704
O           2.16809309158140    3.85185310983399   -5.95401468513466
C           1.08761649629431    3.16174683599261   -6.40096736959429
N          -0.18211789101903    3.73583765429002   -6.22434606523632
O          -1.13817189302521    3.09703787883266   -6.63287760500733
O          -0.26310676797624    4.82461179411565   -5.68205355551469
C           1.41137644902105    1.95927257230289   -6.97855421317114
H          -7.82889945602797   -4.97193516774629   -3.51303993425008
H          -5.03109523220836   -5.43214702121782    0.61722322247609
H          -8.17879507427672   -7.74594332539823   -3.27517076801971
H          -4.87562861077733   -0.02227944124200   -0.97802000652377
H         -10.90230517202226    0.16670450055847   -3.47135007669013
H          -7.32968035267418    4.02171651770512   -4.56169387263251
H          -4.55330575215098    3.69569342746053   -3.30035806865172
H          -5.82611798047033    5.82642042303776   -5.12729401699172
H          -2.87779224111395    4.88448818511291   -2.98270009543063
H          -2.39484796230159    6.58374952983864   -2.97195809156971
H          -1.85081970839457    5.53340298842410   -4.26772112278154
H          -4.49349407101539    7.46050031784707   -5.99138721136910
H          -2.75260346527176    7.47158399591481   -5.65508008845913
H          -4.87794715732763    8.74454203981527   -4.05525720063388
H          -3.30587876059525   10.09569639288830   -3.12477510339812
H          -1.25223024008022    8.23543594086608   -4.45324792670003
H          -0.91505847313719   10.73821715407872   -2.70138964148712
H           1.70901944274486   11.13043336288779   -2.23282478297563
H           3.96617896226445    9.94796340624491   -2.63327484925418
H           5.76659074001311    8.27088070899617   -3.34292844488704
H           6.96068109330269    6.16916777255868   -4.24235388938369
H           6.48306321295595    3.96428175440454   -5.43955524079291
H           3.86932436389394    0.08930116465125   -7.68513341846875
H           0.72224260922986    1.25464143811069   -7.39529443348387
