108
 SCF done       -206.553466783191          0.000992134217
C          -8.25872682804612   -2.78165528892580   -5.55092479375830
C          -9.31916590483865   -2.54944296565568   -4.70715724463312
C         -10.31112888508104   -3.50381601201126   -4.40759579209105
N         -11.15591828398707   -4.23442911198961   -4.14045844135372
C          -9.51341756505175   -1.35905113264133   -3.97997503299853
N          -9.68454884420193   -0.42745849317861   -3.32814290635487
C          -7.90871882663368   -4.07115781272165   -6.13005818655021
C          -6.63774487981823   -3.95169503969124   -6.74139037710137
C          -6.00998209018229   -5.00467440904026   -7.35914776212547
C          -6.67170372940043   -6.23750055338298   -7.37621132389763
C          -7.94457220732822   -6.34620984833867   -6.76813109054801
C          -8.57783455537030   -5.28032177324037   -6.14037997095971
S          -8.58559698961835   -7.95534112862756   -6.91124976045208
C          -7.15299871025523   -8.45332162883512   -7.77135782727614
C          -6.24104283546397   -7.46745202083812   -7.94460679030233
Br         -6.99705875499265  -10.22741617646494   -8.36024758874484
C          -6.15965440287941   -2.56152063763614   -6.61608480104635
O          -5.12915760872555   -2.12375823464817   -7.10179935374881
C          -7.21598653094927   -1.83699514143569   -5.90033420052262
C          -7.37473022329986   -0.48311595208583   -5.70080616160759
N          -6.50416888496167    0.52836399508748   -5.72115571643047
C          -7.00250032442273    1.84167179186400   -5.68700482771261
C          -8.04818456717567    2.27835178256537   -6.44972883939161
S          -8.34269687919006    3.95127158661912   -6.24907781713136
C          -7.06856290619634    4.08273407914817   -5.10935543761776
C          -6.43601261399588    2.88973529145816   -4.89055436574949
N          -5.40122664533893    2.68144111626879   -3.98733331647104
C          -5.31710818593059    1.38694886217696   -3.34949450704104
C          -4.54379993771643    0.40928442462927   -4.22965109472870
O          -3.59633581106444   -0.22084997998764   -3.85740450399215
C          -5.06817289820622    0.37275008119007   -5.66057769951611
C          -4.43123624047065    3.63626731560908   -3.82613015201037
C          -3.29810771683238    3.52971447405853   -3.09444914633208
C          -2.30054540934006    4.53218143486319   -2.98517576144291
C          -2.26185292015347    5.79833712790191   -3.49987115008779
C          -1.16169086649017    6.69196022793112   -3.37518016425401
C          -1.32118707217467    7.89200758077090   -3.99026090503151
C          -2.57038658301028    8.04668867274807   -4.63762149858607
S          -3.53348398950693    6.59510666102347   -4.42476121106763
C          -3.03638642755464    9.11643155182714   -5.36112019112992
C          -2.36539260442837   10.32066806789377   -5.68734009531030
C          -3.08828645823573   11.17156188334180   -6.45532938745880
C          -4.40198770839541   10.71554586934652   -6.77979074180016
S          -4.64726705158487    9.11852581956239   -6.06177171037840
C          -5.27236117359442   11.41652399126730   -7.54844237679675
N          -6.58103026050864   11.13466133282634   -7.86650593793473
C          -7.13618322095489   11.78030685666876   -8.95171255448717
C          -6.41015478445482   12.25789776032340  -10.01335468640668
S          -7.38088049806501   13.05707317902583  -11.18425566432849
C          -8.79515403342463   12.73678369355359  -10.28095562768761
C          -8.53260778107984   12.05916569185668   -9.12758204409638
N          -9.54972917645606   11.67501153589316   -8.22839368356205
C          -9.71746797047247   10.25815356680684   -8.06035157001197
C          -8.45624918764783    9.57875445667843   -7.52146274180108
O          -8.29759513382682    8.39355815333097   -7.59845274365907
C          -7.45543350108225   10.52472256073054   -6.87784197698296
C         -10.21518012935126   12.58732973081927   -7.49541987547848
C          -9.89906244492640   13.91123714076185   -7.44786952971085
C         -10.55312567759127   14.83473640655061   -6.62050653106755
C         -10.10760107979863   16.09692924384881   -6.31839745936213
C          -8.82313646109003   16.71214567705661   -6.52430358292380
C          -7.60309159256313   16.07687963725186   -6.61584342977308
C          -6.37701742936888   16.74002415395352   -6.81236386957277
N          -5.34816101128086   17.21353539426045   -7.00660979301964
C          -7.40746161420958   14.70011874748455   -6.41590203572295
N          -7.17695830458401   13.59149419004511   -6.21275731998894
C          -9.00210595024705   18.15477258356629   -6.38386297350218
C         -10.31410182201651   18.40320731624832   -5.90770572794701
C         -11.03765535201494   17.11695041394958   -5.79054584194694
O         -12.16783690118553   16.93994799887163   -5.38904212225074
C         -10.77067480698287   19.66798666162697   -5.63321542879698
C          -9.89571577013924   20.73989301408452   -5.84729200858685
C          -8.59311616241334   20.48165252690892   -6.33348052367743
C          -8.12693329806808   19.20049178047493   -6.60380252132710
S          -7.68305054753587   21.94884208849838   -6.53489792353312
C          -9.04533801200180   22.87584704317213   -5.96468240168303
C         -10.12718644180750   22.12804397314693   -5.64299410971838
Br         -8.91168604150216   24.74400941647098   -5.85357954730084
H          -5.03873268227998   -4.88302069072568   -7.81247764717208
H          -9.54935744116101   -5.41128792872493   -5.69387863091567
H          -5.30304983645774   -7.60002269073834   -8.45221098204616
H          -8.38434092723143   -0.15010664982432   -5.48394147072257
H          -8.63086529761186    1.70650420389025   -7.14366417969808
H          -6.86313733341905    5.03047986577752   -4.65564729904598
H          -6.32833970628441    0.99902868849907   -3.18327940944861
H          -4.82671960195196    1.48260238729800   -2.37948511317909
H          -4.76205297437224   -0.56237766675246   -6.14393691889608
H          -4.59189971133959    1.19738246057300   -6.20284653234372
H          -4.62733102353825    4.52816914630432   -4.39631224710369
H          -3.07820250448603    2.61448945921184   -2.56471231102796
H          -1.42193327180474    4.24705678753841   -2.42017039368482
H          -0.27733322804928    6.40243286110536   -2.83456162557688
H          -0.58336348160896    8.67428022410137   -3.99499262239701
H          -1.36292354136459   10.51275328015096   -5.34941275307709
H          -2.73793472169233   12.12808058895698   -6.80038946557909
H          -4.90214076635569   12.33867100022459   -7.97889410840242
H          -5.35683009042153   12.17663740351613  -10.18259919369416
H          -9.75255514916667   13.06998862045742  -10.62894284968206
H          -9.97920624853149    9.78577632809279   -9.01549252730950
H         -10.52928247850707   10.05576938833858   -7.35503722033939
H          -6.83886929168710    9.94450603008142   -6.19072389557087
H          -7.97291067287222   11.31347900622149   -6.31630889373827
H         -11.00463987345736   12.19349963921671   -6.86911740800851
H          -9.07676887614074   14.26306868832320   -8.05283933332160
H         -11.52467288088533   14.57033465472986   -6.21861943782125
H         -11.77070048538095   19.82898522254896   -5.26220289281068
H          -7.12647534936821   19.05241773386554   -6.97572116478740
H         -11.05153762165505   22.53647768267514   -5.27709566174859
