78
 SCF done       -150.359314409716          0.000764373360
C           0.56684653093069    3.67760769463687   -4.38783592563066
C           1.19037936226876    2.72002393808735   -3.62855776604829
C           2.48255092242460    2.21985618456394   -3.89069923537568
N           3.52896545753086    1.77469317163267   -4.05085697114299
C           0.64076654335182    2.09589142377662   -2.48971468667336
N           0.27502816183323    1.54765669012880   -1.54891264377746
C           1.13513352046589    4.34420938062364   -5.55024646782427
C           0.18150939393294    5.24972570961983   -6.07980686913629
C           0.43123816278171    6.02987887264019   -7.18260039661901
C           1.68711987992516    5.92211216013422   -7.78898412733081
C           2.63471901919394    5.01678449336204   -7.25327149038316
C           2.38014301733567    4.22197640653192   -6.14351982803422
S           4.12063616672117    5.04103157265405   -8.15402823798742
C           3.45828196426105    6.25063499894804   -9.22163850491482
C           2.18998455719826    6.61856037560916   -8.92158592671614
Br          4.50455642645067    6.91532929398317  -10.62877268077371
C          -1.05649694711834    5.18321424207429   -5.28130408837088
O          -2.11318296573446    5.71082385859958   -5.53896289503648
C          -0.75775252508457    4.23713556631920   -4.16338848687597
C          -1.62402660439256    3.94274041299590   -3.16873730036690
C          -2.86359666583940    4.66210741344968   -2.95664975683495
N          -2.84072768603693    6.00738962097035   -2.97363958086370
C          -3.99030741353524    6.60619168601605   -2.82537449675854
C          -5.17049603874973    5.87535826374490   -2.55477237959069
N          -5.07820357400100    4.54632422827847   -2.47555581450469
N          -3.95978762406890    3.94960029527790   -2.70907738425827
C          -6.42482152851656    6.54944532693413   -2.33031794237819
C          -7.58964548711003    5.96450185664139   -2.01492201951439
C          -7.75844906044901    4.49670839680318   -1.82466464166507
C          -8.84847739788167    6.77849833689881   -1.80152588103702
N          -8.75944416690840    8.16792537378146   -2.14932331658311
C          -8.24251897041706    9.10969171583301   -1.33213099362979
C          -7.92469354971646   10.36889359698875   -1.73811315453063
C          -7.42980791474289   11.36917227823556   -0.88560135750320
C          -7.10324578612798   12.63286053888688   -1.31096394892093
C          -6.59181131183065   13.70784051349423   -0.54696654303986
C          -6.36902295280740   14.84718248254609   -1.26246388202986
C          -6.69452412428191   14.73218097786294   -2.63162535909633
S          -7.28959050286466   13.13294044066038   -2.98907752464968
C          -6.60023617721940   15.68331340492214   -3.63353239397293
C          -6.14650655620041   17.01503170750378   -3.56217237402029
C          -6.19444923595583   17.67370433726441   -4.75503481056347
C          -6.69125079612466   16.89650854335804   -5.83305548840269
S          -7.09110957400722   15.28939793542888   -5.26699224048977
C          -6.83882745500204   17.34045486079235   -7.12470838918472
C          -7.33072538362024   16.63038071635468   -8.23539884792735
S          -7.42646734507035   17.44320438117215   -9.79490414025885
C          -8.07476399531708   16.08088466080688  -10.62171387144545
C          -8.22101551704026   15.02769710834423   -9.75194515745222
C          -7.80256656360817   15.33996582207533   -8.41873279197417
O          -7.96784630751846   14.26940054402320   -7.61132474706754
C          -8.48082083984023   13.29022638611379   -8.39917460229558
N          -8.75600595090573   12.04237853850936   -7.80350222202150
O          -9.22402750515842   11.18306742916087   -8.53209441560324
O          -8.51500998063927   11.89692993454359   -6.62183625871743
C          -8.65979658797069   13.67704436481093   -9.70224882842894
H          -0.31831773981291    6.70607301358200   -7.56266490656327
H           3.13451733068941    3.54662220141962   -5.77655703289024
H           1.63062601024083    7.35070653415944   -9.47482640764666
H          -1.43846756637218    3.12925736460714   -2.48222417349993
H          -3.98797150846077    7.68798103979089   -2.87107428392924
H          -6.37234681190052    7.62514757877869   -2.43748855908532
H          -7.12733708325425    4.14715862203082   -1.01002798956052
H          -7.42457088734533    3.96249849709913   -2.71181728913792
H          -8.79360060717659    4.24235410646735   -1.61236540547385
H          -9.12631245809675    6.70056958360787   -0.74329261880967
H          -9.65686520424771    6.32741869909179   -2.38695790793660
H          -8.78882827946058    8.39202375715185   -3.13415466951395
H          -8.12482122245446    8.81440084091815   -0.29785429553760
H          -8.05427664370707   10.62818609270166   -2.78112108651596
H          -7.29077957396417   11.13604659209549    0.16203696326093
H          -6.40468517117962   13.60668816518853    0.50797925583074
H          -5.98410335269318   15.76068285380094   -0.84562879215269
H          -5.79843995667645   17.45187646728728   -2.64303066275287
H          -5.89051328826723   18.69556194568214   -4.89894010076516
H          -6.54603261212857   18.36303784773104   -7.32200750893072
H          -8.30066094077597   16.14070899643817  -11.66512090689994
H          -9.04916495223174   13.06997873639245  -10.49274953504434
