116
 SCF done       -206.759749681760          0.000711662965
C          -6.78665764717357    1.44085814705886    6.45804321440040
C          -6.63122336588224    0.14728210035099    6.02569718454806
C          -6.53883306543741   -0.96619721345642    6.88285076149898
N          -6.46727080951962   -1.90484802726153    7.54070848885122
C          -6.49984078423111   -0.21037613605265    4.66847623213287
N          -6.35495610992058   -0.55023248618764    3.58091564378108
C          -6.79647471861885    1.89638665040687    7.84153832758121
C          -6.80911372313651    3.31341183243123    7.85182944035803
C          -6.82180683805663    4.04301453617999    9.01507078956994
C          -6.82302093380657    3.34072241149768   10.22558578965657
C          -6.81378800607858    1.92606068869188   10.20432814860408
C          -6.79935521742201    1.18731071440398    9.02713718031829
S          -6.82837758828943    1.26234196921456   11.80971954928648
C          -6.84438038257861    2.87240894381438   12.47905143886546
C          -6.83888308751357    3.85752036085288   11.55006775638073
Br         -6.87090213063808    3.09994961822073   14.34062085319038
C          -6.81922827237964    3.81833160659538    6.46299831439692
O          -6.86107650776033    4.98010438480637    6.11347708365817
C          -6.87384057988720    2.60706614618646    5.61140425856815
C          -7.24223248014235    2.63054197550026    4.29336222016295
C          -7.26874897538702    3.78090790971407    3.46923295065491
S          -8.73844753557163    4.02097101482027    2.54912908913773
C          -8.19516096660583    5.58357972791000    2.00790449223718
C          -6.89449113948950    5.83948425847740    2.44922158706493
C          -6.36549847733547    4.81516837182169    3.25263392880284
C          -4.87906372651476    4.80350200331521    3.56012221972315
N          -4.35487901096261    3.93347626320574    4.58281049315986
C          -4.44498058336185    6.24618686336837    3.82270401278330
C          -4.69606007352425    7.07759303018101    2.57615076908529
C          -6.18961152725868    7.15537409774100    2.22031089174666
N          -6.40892396919770    7.65053184432485    0.86449130507698
C          -9.01262867280485    6.40335498860386    1.20620343211596
C         -10.31766446056221    6.12592163352454    0.90123441271765
C         -11.15153209579449    6.84944232557775    0.03431362684748
C         -10.80311946170597    7.82395227096440   -0.87570876326385
C         -11.69770825715705    8.49217058238233   -1.74913575697335
C         -11.10407065382358    9.35696480315601   -2.62110863580103
C          -9.70235436443046    9.41856533001757   -2.48412434944057
S          -9.16831698709056    8.35802648501091   -1.19901745726879
C          -8.77091564147130   10.15915726411325   -3.18876793510963
C          -8.93468615248819   11.07574903279178   -4.24827760444257
C          -7.76566618344619   11.61593233529376   -4.69635414010335
C          -6.60584780067316   11.15524046710715   -4.01876238578611
S          -7.07804620322950   10.00297316036099   -2.78637000404017
C          -5.32333858867185   11.60890224169832   -4.18056918707461
C          -4.16544258676532   11.17930284546956   -3.48810477789788
S          -2.99695967311341   12.40921531682173   -3.06695842405113
C          -2.00598433903507   11.25873127555510   -2.20407962359738
C          -2.52569512961615    9.97503243238195   -2.33936451288486
C          -3.74264267520989    9.93555104155076   -3.03132920706661
C          -4.32157767788494    8.58745044908337   -3.34840989749813
N          -4.79005995137927    7.92281598614055   -2.13615799694524
C          -3.17225137754153    7.75995807653302   -3.94605154266229
C          -1.99365550396296    7.62906404164461   -2.97301772530569
C          -1.98842565825666    8.67323174351532   -1.82305646280125
N          -0.68695313424088    8.77803155651496   -1.18301338752053
C          -0.96367419009449   11.66148440898931   -1.35560652959677
C          -0.57270053030527   12.94489476528758   -1.10699259372115
C           0.38951450844909   13.28219550334608   -0.13665586072323
C           0.83524808312735   12.54001071461716    0.92906573888452
C           0.33154233002557   11.36104265943539    1.59305584149728
C          -0.97484718110561   10.94559334257201    1.69500312519443
C          -1.39964168330345    9.80446395214208    2.39852482156066
N          -1.82513870575584    8.87447701715868    2.92370521061302
C          -2.08139988706658   11.63499015505073    1.16229601145246
N          -3.04311667093694   12.16033651320380    0.81799210654579
C           1.42877566877802   10.80476903959317    2.38235806947430
C           2.50008850622726   11.73114202618495    2.38843375340091
C           2.13977262181966   12.88837412085219    1.54031451755337
O           2.79319600969310   13.89071741335934    1.34788597498752
C           3.66298931641332   11.50965160401346    3.08370528446084
C           3.77812412153605   10.31138389169828    3.79784555797047
C           2.70850297962003    9.38661851870180    3.77285718218413
C           1.52778796120847    9.61466904929783    3.07597357248366
S           3.06678939303258    7.96919423712993    4.71363722225335
C           4.62548044963916    8.63294634820805    5.12624941488039
C           4.86819908912083    9.85052405619463    4.58688788538225
Br          5.78567542830095    7.65307756171073    6.22860354337867
H          -6.83043313697844    5.12156824778791    8.99426374472981
H          -6.79930090075548    0.11039380163783    9.05846250101399
H          -6.84753782237668    4.90580245803331   11.78679607774807
H          -7.68714736966099    1.73764351345079    3.86753018572732
H          -4.40289975769936    4.46644285410050    2.62330266883251
H          -4.65307671778143    4.23126014738206    5.50256067084311
H          -4.63205681254893    2.97082793863295    4.43507005606312
H          -3.38524546421259    6.25855061293840    4.07446013515671
H          -5.00990727168645    6.64066994703281    4.66884339553045
H          -4.15722242650050    6.62885653807523    1.73563834219455
H          -4.30467465418032    8.08714960168410    2.71344692628311
H          -6.67294325859745    7.87847389637996    2.89480701396219
H          -5.94037844365420    7.04427088835338    0.19811529232511
H          -5.99644964681753    8.57324491671508    0.77664030092933
H          -8.52630440997223    7.29969943606676    0.85014841888626
H         -10.77231592459213    5.26690813824507    1.38189542408406
H         -12.20052787311517    6.57994676498261    0.03887893508225
H         -12.75684825408986    8.30647160186430   -1.70978306745623
H         -11.63204616834398    9.93774566488830   -3.35612029356011
H          -9.90467808028438   11.31566260204879   -4.64585050569462
H          -7.69446306710366   12.33508075541759   -5.49307777104178
H          -5.19726278076849   12.47659838657760   -4.81635668294696
H          -5.11013298149564    8.69451943151832   -4.11302468105992
H          -5.45285448753678    8.50972270519731   -1.64350530652521
H          -5.26809335940617    7.06420682047742   -2.38817560632148
H          -2.84982598391335    8.25214548088427   -4.86528525600713
H          -3.54632570845803    6.77045757164777   -4.21122668431019
H          -1.05872175154443    7.73721094693834   -3.53005152254740
H          -1.99446568482220    6.63781030015503   -2.51824218901392
H          -2.70039975326609    8.33508466969394   -1.06098822071589
H           0.03784250737962    8.90524412081860   -1.88445064676643
H          -0.48309642084036    7.91882416748154   -0.68460024738744
H          -0.47370553044961   10.84659677858873   -0.84156936566193
H          -0.98274878809012   13.74747530858918   -1.70670591808479
H           0.90096494337523   14.23174789691869   -0.26052076690788
H           4.45995961813344   12.23648754605578    3.07943153925049
H           0.74019453183704    8.87955689692700    3.08205128172560
H           5.77748293552858   10.40317245348869    4.73757586196416
