83
 SCF done       -144.492408680490          0.000952736200
C          -2.36589696389610   -2.68439626116201   -5.67576171115118
C          -2.84421264441646   -3.90716212502655   -6.06728764805793
C          -2.12321183234345   -4.80770560109709   -6.87891186450536
N          -1.58049268039472   -5.57902517089844   -7.53379973549364
C          -4.12825233706079   -4.41505941988353   -5.77457329805331
N          -5.15734133691049   -4.89811800334077   -5.61544645177808
C          -1.09533803332866   -2.10304715977577   -6.07316918557108
C          -1.06652337073677   -0.75046033666091   -5.65517200645095
C           0.00665989646607    0.07482450387474   -5.88975445030175
C           1.10938312466598   -0.46228927542528   -6.56178262071454
C           1.07374765941995   -1.81720790050601   -6.97205957746665
C          -0.01274148741344   -2.65001830930583   -6.74076774244359
S           2.54147135910498   -2.27771708699276   -7.78029947530491
C           3.17215118270546   -0.66646513180933   -7.56168398047201
C           2.33002877237381    0.17460569727690   -6.91552780252405
Br          4.88256158809401   -0.24712542393416   -8.20697067938401
C          -2.32985230076161   -0.41033827537321   -4.96652119251054
O          -2.64082538533596    0.69413499609805   -4.58871231797936
C          -3.07540731319194   -1.70072726513000   -4.85930512761842
C          -4.09654895273920   -2.01254894363812   -4.02870963321405
C          -4.85240992184203   -1.15673485560466   -3.13431658611624
N          -5.47971949511953   -1.81414543897728   -2.14867447072704
C          -6.19425040041356   -1.08872822051516   -1.30943528287541
C          -6.29975445090022    0.28818343820237   -1.41865580989544
C          -5.61312774095185    0.89176901788241   -2.48237325144827
N          -4.90858447610209    0.14635350811244   -3.33568897223994
C          -5.62336895590290    2.32132896946572   -2.69581243111059
C          -4.87434113290501    2.87989662193014   -3.66310041373263
C          -4.79409183038861    4.28697021492118   -3.91264960632785
C          -4.07275086438056    4.85741379934450   -4.89151996298673
C          -3.23988066832686    4.10546774297557   -5.87970018071465
C          -4.05260196079814    6.36025944749740   -5.04393066914226
N          -2.73129132178938    6.88746174041396   -4.79072805292438
C          -1.86625061351747    7.23786560389042   -5.76484935798391
C          -0.52716211325127    7.39850629361718   -5.58712054194692
C           0.33289238888550    7.86607956036481   -6.59616448678689
C           1.68892913653386    8.00485253947159   -6.46246004983990
C           2.59817972965722    8.50502832409308   -7.42638506082168
C           3.89384390554912    8.53730421443354   -7.01314340763343
C           4.09374943388941    8.05192352034261   -5.69867993382679
S           2.56792322166983    7.56348510194900   -4.99837439982978
C           5.27664826422772    7.93723483075890   -5.00047090355652
C           6.56963597501173    8.31740019481100   -5.42801986245332
C           7.53968116761406    8.07238922012490   -4.50787617622101
C           7.06368369647989    7.47755675981469   -3.30796169312859
S           5.33729637360838    7.24692911772014   -3.37790148867593
C           7.78655764427197    7.10346366484741   -2.21420990516821
C           7.16437334755305    6.49612462119083   -1.08545763787053
N           7.94703937245867    6.14562548734813   -0.05328974599949
C           7.35445398227315    5.57627697166907    0.97381944674019
C           5.98769297154834    5.33934684461349    1.01298967316716
C           5.23913168854477    5.73795732622161   -0.10169082312271
N           5.83912695908305    6.31259743743735   -1.13788059889294
C           3.79734090435626    5.51770042241119   -0.12265850721137
C           2.99341545469464    5.85606519584359   -1.12238788379076
H          -0.00053913132373    1.10264517692482   -5.56171410447497
H           0.00945284926367   -3.67632834157734   -7.06683158410076
H           2.55969240263672    1.20099971787155   -6.69437716269403
H          -4.39175024253697   -3.05034457390424   -3.93590547867215
H          -6.69736847505963   -1.63811551738889   -0.52324794950903
H          -6.88329176905902    0.86995779332865   -0.72332304554586
H          -6.24017958134378    2.91295138820081   -2.03214629902908
H          -4.28652886041389    2.20700000012081   -4.26743944050008
H          -5.37402174977375    4.92342677151123   -3.25358048576185
H          -2.89396181751779    3.15838057919010   -5.47704846004828
H          -2.37667276544352    4.69717586934614   -6.18178186106085
H          -3.82936239702803    3.89639343332600   -6.77347524935269
H          -4.75677611501230    6.82083031981919   -4.34323686772609
H          -4.34038675770142    6.64065254370301   -6.06124795260848
H          -2.32925596510728    6.63439397810646   -3.89849163659210
H          -2.31623123618503    7.44410446217411   -6.72760432078684
H          -0.08744211118377    7.16667199141786   -4.62624479537225
H          -0.10223400854637    8.14230783192882   -7.54820164253637
H           2.26002490825913    8.83071357315130   -8.39489338180921
H           4.71273373377197    8.88952176563874   -7.61436264164635
H           6.75026802224165    8.76162948097842   -6.39140226902075
H           8.58420897987842    8.29228289177831   -4.64220826405890
H           8.85360532493886    7.25027743904363   -2.17724050349615
H           8.00049035454672    5.29908919592778    1.79843074468549
H           5.51981794916637    4.86937800542547    1.86293696281741
H           3.40349885880862    5.03992654937307    0.76589799009258
H           3.37376612399548    6.33197323297343   -2.00774540684226
H           1.93377485912581    5.66705169573273   -1.07899935819131
