89
 SCF done       -164.097034525526          0.000310688768
C          -5.59258571014186    0.72761355793943    3.78749606801877
C          -5.43319397505238    2.07059302305031    4.06352232691372
C          -4.86913060830356    2.57582314674663    5.25044757483845
N          -4.43669781681099    3.07211244802310    6.19294491205015
C          -5.77010589310608    3.14320361796946    3.22048640529950
N          -5.98964717712039    4.08973380740707    2.60135919299739
C          -5.15578617980510   -0.35597380525973    4.65940581477185
C          -5.39083453949045   -1.58707982308175    4.00224654006710
C          -5.07489186289530   -2.79865342969038    4.56256392693490
C          -4.51159234111404   -2.79867301892047    5.84454416322870
C          -4.28561325054959   -1.56449671902812    6.49614683610276
C          -4.59510409155345   -0.33692988744231    5.92325936734004
S          -3.58414103057321   -1.79227455426489    8.07079540911878
C          -3.60528017304267   -3.51955678370794    7.83348496452453
C          -4.10990761423252   -3.90756702724066    6.63853331913837
Br         -2.95920627756043   -4.64770952781343    9.18653242714476
C          -5.98680456675709   -1.32805881240747    2.66986030955713
O          -6.16460537787256   -2.15671779649110    1.80528289013764
C          -6.19774347227523    0.13825634736658    2.61543371931959
C          -6.84459087580153    0.87644826289264    1.65244825338710
C          -7.65957587174021    0.45094223175542    0.58386528886458
C          -8.17360206154835    1.35832490117885   -0.33822210022128
O          -9.08146899723946    0.99280587119816   -1.29809446598523
C          -9.36875754336376   -0.34057997682406   -1.36794140174638
C          -8.80732596789915   -1.27385219177139   -0.44978958437559
C          -9.19431567193809   -2.54944530922039   -0.69498576229173
S         -10.25689799977528   -2.62808800205687   -2.05160915479802
C         -10.17382951958787   -0.92366208864386   -2.29099293120611
O          -7.99659279528159   -0.87929595696362    0.56381023466572
C          -7.81184084256895    2.73651316143247   -0.38580790005358
C          -8.49273718832596    3.68339711121558   -1.07697172548208
C          -8.06559346683760    5.04498049965821   -1.05156755170070
C          -8.76149415583747    6.12733726447052   -1.44306472705324
C         -10.15525061356205    6.08130099859071   -1.98504184135407
C          -8.18381153259744    7.50831237558805   -1.23825853350815
N          -8.86181914155803    8.22062134881975   -0.17356584297115
C          -8.65980866743558    8.01683707325160    1.14835773142174
C          -7.72571349905695    7.19501937106226    1.70049774640495
C          -7.47631113388190    7.00914799437196    3.07427172582729
C          -7.97191496472247    7.65849775082316    4.17564965406822
C          -7.62380168718428    7.34343639084908    5.51326252235221
C          -8.19890965772998    8.13756049435270    6.45676643930047
C          -9.04241259906556    9.14030747580396    5.92683905343729
S          -9.08729641132654    9.02580453340614    4.18322581897925
C          -9.75389344791638   10.10008752367047    6.61818452438036
C          -9.78743048863811   10.31915672637860    8.01159395731147
C         -10.58663067395549   11.35563418215927    8.38326903707191
C         -11.23105909672766   12.02588878177878    7.30843827302922
S         -10.76767714867809   11.28113073852705    5.79541070852951
C         -12.12201209270069   13.05486833665171    7.48451105630294
C         -12.93022536408474   13.78923800874649    6.58346254620058
C         -12.75246735463630   14.05376249614542    5.24677504107178
O         -13.75947233703574   14.59651373867699    4.45753151825635
C         -14.87849170676567   15.00224756502755    5.10916262985107
C         -15.01172648635923   14.86186461948908    6.52166096021970
C         -16.18473115744984   15.35312268301804    6.99015548345960
S         -17.15002101843901   15.99527979261099    5.71051377914047
C         -15.95361232218521   15.59606164380574    4.53370671312749
O         -14.05235924983356   14.26705122777879    7.27418285653558
C         -11.55231160252969   13.90633162080696    4.47009632040806
C         -10.29927806679465   13.90035316847693    4.93212271218605
H          -5.25916369413755   -3.71991574819503    4.03247336922083
H          -4.39995890789576    0.57586514200157    6.46062075912738
H          -4.19619842547686   -4.93286721308989    6.32800227378543
H          -6.78869752354414    1.94531837357929    1.76876729758312
H          -8.91337174420754   -3.43215017809074   -0.16077423351010
H         -10.71498481645202   -0.45589031913504   -3.08653686656915
H          -6.94832475449225    3.04629720632354    0.18051070000270
H          -9.38645951629842    3.41191446485585   -1.61779467730203
H          -7.07692906850520    5.19363968935708   -0.63681349439360
H         -10.33175972494050    5.16651688301917   -2.54352008695842
H         -10.34241467687457    6.92988859663441   -2.64048905566462
H         -10.87932048030115    6.11690218577336   -1.16948746686085
H          -8.29367743184476    8.10138611061195   -2.15130759703268
H          -7.12153228978755    7.44741302386101   -0.99363642797400
H          -9.70321905845674    8.70933649722735   -0.43373108157115
H          -9.31503471716847    8.59529172221806    1.78338750644268
H          -7.11646466935083    6.58616706943625    1.05370935596894
H          -6.76987990110474    6.21909850173399    3.29950346972431
H          -6.94936297052017    6.53371830701096    5.73166560281106
H          -8.03693294087400    8.03559981710478    7.51442707483890
H          -9.22165016221691    9.71512028063658    8.69769248162681
H         -10.73917349940419   11.66901799754836    9.40099104446789
H         -12.37467223919246   13.26356620407396    8.51807044745519
H         -16.53649336330518   15.37543154960200    7.99998532051415
H         -16.11058185728058   15.81980131676891    3.49960547156222
H         -11.73568274583028   13.87313556278836    3.40435134311220
H         -10.07302253902997   14.03026102023314    5.97549497494781
H          -9.46449184247327   13.81649673410270    4.25992726434991
