112
 SCF done       -194.629915919159          0.000819598401
C         -13.27825793403509   -1.70394437756920   -5.36542674503761
C         -13.95129207173313   -2.57750776023329   -4.54907370949029
C         -14.81368725699523   -3.59096062357054   -5.01549785268205
N         -15.52784846971349   -4.43344411840656   -5.33019794531653
C         -13.88483121466261   -2.59836281730479   -3.14106769277995
N         -13.88938675110365   -2.68401484850522   -1.99544556657593
C         -13.33899962111508   -1.68925909390375   -6.82037279826009
C         -12.48852390250313   -0.66561540776093   -7.30457002034295
C         -12.33547378620864   -0.39559208151305   -8.64258564499778
C         -13.05238132667854   -1.17878559850343   -9.55231186755362
C         -13.89798929053216   -2.20278711850646   -9.06176665758381
C         -14.05648427651095   -2.47202947504964   -7.70886302990585
S         -14.68950618659966   -3.05053923086633  -10.35707073530059
C         -13.88332441824400   -2.03263377762533  -11.52138104964462
C         -13.06432603523061   -1.10487364625628  -10.97196388987348
Br        -14.19951951729496   -2.29065492702511  -13.35216569211349
C         -11.83312935154730    0.01316640327356   -6.17006138264064
O         -11.06010233930027    0.94215801789761   -6.24487255084328
C         -12.36569778207701   -0.65035439951107   -4.94799819798364
C         -12.14571993552319   -0.21732501076412   -3.68002369468819
C         -11.15017865188594    0.77219688358433   -3.33714359822742
C          -9.86042941789083    0.61751911182865   -3.76271209682434
S          -8.78736054190425    1.84088475745062   -3.24369972134531
C         -10.10704143006914    2.67813665930919   -2.48523549474353
C         -11.31962872054074    1.97510878088211   -2.55732326460839
C         -12.46954226374012    2.50718862464550   -1.92461220151908
C         -13.72686241757399    1.68075861064838   -1.93080173568268
C         -13.74834881939247    0.66645427824693   -0.78577677003926
C         -12.41410319018162    3.75334967669729   -1.31449946050613
C         -13.49848782553225    4.22371305047636   -0.37724335125458
C         -12.92558533032774    4.45968687385835    1.02322466876189
C         -11.24710763502371    4.54672572786286   -1.46021655985139
C         -11.00782829650120    5.93110266698823   -1.12876757674440
C          -9.68487259602126    6.25168916198931   -1.21307928270474
S          -8.68179505066367    4.98382481336381   -1.80187619496560
C         -10.07107645378876    3.94981077221781   -1.93865416224517
C         -11.99440136691893    6.98042140287865   -0.96544677244096
C         -13.09578630640659    7.04518382798346   -1.73700894947152
C         -14.06851884377303    8.09016586615845   -1.74357113720133
S         -15.06345663023480    8.27222804382708   -3.15883842934565
C         -15.79367059092902    9.68091623784298   -2.50050594424260
C         -15.31482206101975   10.01317215622735   -1.27346232109483
C         -15.83763356775099   11.17437157997383   -0.49368422336448
C         -14.32067830983522    9.09115010165770   -0.81338769884850
C         -13.71626098046338    9.09505755813881    0.49086641740825
C         -13.34493918956016   10.19670416764913    1.18580493344321
C         -12.78501695218594   10.19939163211051    2.49168009799792
C         -12.69541199148554    9.12582276726266    3.33005076369072
C         -12.15801463052789    9.18949881171101    4.62299481817327
C         -12.12452034771208    8.12953584925483    5.49669155113193
C         -11.63478867043395    8.13150310040442    6.82408512431419
C         -11.77200188098791    6.94165951420495    7.47391699632524
C         -12.37385231798532    5.92853496972690    6.69638322974896
S         -12.74867182190210    6.53418060440024    5.09773166703141
C         -12.68550528954086    4.63549369531932    7.06862306577926
C         -12.48528426209584    4.02757374386621    8.32787610241514
C         -12.94765757503636    2.75199834696961    8.38628273045824
C         -13.53669490727937    2.26916473856565    7.18098791447853
S         -13.44178704732350    3.51579802970229    5.95146208892194
C         -14.10889838037657    1.02834520914555    7.10329466536552
C         -14.77015341812432    0.33920090825018    6.04894347325883
C         -15.39735807226830   -0.89134326460890    6.33390264567020
O         -15.29832470244551   -1.29682391331379    7.63069590549753
C         -16.26281903578685   -2.13924633356366    8.22512068445671
C         -16.04201151251790   -1.65668861138792    5.31526563936587
O         -16.55273644659903   -2.86318611392074    5.70011127048373
C         -17.19270164887856   -3.66414917033605    4.73583486993147
C         -16.11702161908488   -1.19958554442408    4.01915757670905
C         -15.52258576652920    0.02597190042252    3.70167634297774
C         -14.83912959754615    0.79557782829281    4.70572962386572
N         -14.32296925791524    1.90700465052174    4.20290153866688
S         -14.66658488451409    1.98844285971310    2.62790143160172
N         -15.48501972547564    0.60620863084086    2.50369459223302
H         -11.68049348451817    0.39436850185052   -8.97506719448740
H         -14.71676983407456   -3.25994326689896   -7.38758684350477
H         -12.49152776710907   -0.39644669270357  -11.54193563517687
H         -12.70503622695104   -0.65815188033780   -2.86732601827773
H          -9.47438745239330   -0.20656837082280   -4.33068414133068
H         -13.78477872016349    1.16047159734902   -2.89059681623836
H         -14.60803333585586    2.31965225116867   -1.87041175056140
H         -12.83180878158615    0.08128097552753   -0.76556311427098
H         -14.58970573155765   -0.01391152897022   -0.89003771977589
H         -13.83940152696333    1.17479859870817    0.17069341122063
H         -14.28135800686471    3.47392694095358   -0.29601331179595
H         -13.95686026252017    5.14740962731121   -0.73056962969531
H         -12.41296087205582    3.56916956999165    1.37952823982934
H         -13.72521842502890    4.69649157149965    1.72116245746885
H         -12.21659048400359    5.28306416024321    1.02378587992098
H          -9.24631054322803    7.21204685461342   -1.02442855900291
H         -11.72777576559330    7.80065018671003   -0.31452793775304
H         -13.24088359528441    6.28325855135298   -2.49377942738320
H         -16.55329971094020   10.18657908542432   -3.06405102421617
H         -16.82802770110677   11.44855418388958   -0.85038609011326
H         -15.18648567473300   12.04072351657840   -0.61030961350745
H         -15.89381081192233   10.92722940181251    0.56442666416309
H         -13.54382666837185    8.11495799379413    0.91620156263536
H         -13.42844868687364   11.16284005543642    0.70823440884279
H         -12.41832764428156   11.15231403712367    2.85312127910499
H         -13.07457589641756    8.16274032255513    3.01470665003405
H         -11.75965273381722   10.13391008043203    4.97142471278564
H         -11.20358156364305    9.01632626048816    7.25895493059633
H         -11.46099464562320    6.76754155488924    8.48854506561618
H         -12.01931963718765    4.54202411677559    9.14962946012707
H         -12.89560110875415    2.12833543021157    9.26181533310011
H         -14.07267488918009    0.46494215879522    8.02681919583246
H         -16.09603310503186   -3.18815539358253    7.97365934674490
H         -17.27791359523925   -1.85472321210267    7.94130643604618
H         -16.13561450173948   -1.99955333749112    9.29952479295569
H         -18.06718336409656   -3.16092227405293    4.31233144591278
H         -17.51343127545451   -4.55760723722278    5.26949142790714
H         -16.50828561765685   -3.94747517268961    3.93086011887551
H         -16.59368063231260   -1.75782555985110    3.23336324828023
