95
 SCF done       -198.323592428982          0.000836329686
C          -4.95979740743764   -0.67353672093855   -4.10063949523869
C          -4.99092720320859    0.39763931880740   -4.96385705097286
C          -4.33430645767848    0.43042144475533   -6.21027816416096
N          -3.82580296318436    0.50319490708648   -7.23654064110970
C          -5.62135718116418    1.61405289809444   -4.65748175270840
N          -6.08755443371310    2.63491273623838   -4.40439850761572
C          -4.17124564945669   -1.89056337262504   -4.25986426723522
C          -4.24771763581110   -2.64833150655750   -3.06022281517631
C          -3.59214156537520   -3.84410528321473   -2.90039457581809
C          -2.83117789735935   -4.32041574738424   -3.97469848918222
C          -2.76522807008466   -3.56063159799600   -5.16719201893903
C          -3.42322476510385   -2.34622528532458   -5.32744727113004
S          -1.77850450628596   -4.33733330107913   -6.36618253378053
C          -1.46973141072246   -5.65413437705914   -5.26598269888054
C          -2.07478263147088   -5.52004111599618   -4.06077841275670
Br         -0.38155168346170   -7.08000402338392   -5.81137817949609
C          -5.12199961031188   -1.94501618655995   -2.10859173169876
O          -5.43092619018241   -2.27941078095587   -0.97313621296037
C          -5.60261492678554   -0.75391150097205   -2.81529269399912
C          -6.58727181661774    0.05380734609593   -2.30299450871408
N          -7.03881945581599   -0.10458162510838   -1.05338134785492
C          -8.00585793016835    0.62517019043359   -0.42203973232009
S          -8.79973682545193   -0.09273759306022    0.94632900700293
C          -9.82411198857740    1.29791407609250    1.05997931948842
N         -10.77912558190873    1.33315269358925    2.08894517880067
O         -11.50114803794015    2.30861431249232    2.15190726887424
O         -10.80845316896755    0.37648363237273    2.84083261916482
C          -9.56265792384612    2.24995920718635    0.11271235446071
C          -8.50156495712739    1.89521481059074   -0.74615609500291
C          -7.96013513103300    2.74643433500558   -1.77099525280221
C          -8.64544275325224    3.70274982110448   -2.43081359196362
N          -8.07616258818949    4.42364348963999   -3.42925954677263
C          -8.67538737923181    5.38466384715422   -4.16523270459163
S         -10.29601574157324    5.94206582144360   -3.93339987655731
C         -10.19641051267673    7.09655319674265   -5.24148960093145
C          -8.93518356413931    7.03774736817568   -5.83074124688304
C          -8.06846093311971    6.06808720201993   -5.22084617569460
N          -6.80789153111087    5.86529693494110   -5.64406489547911
C          -6.42441853246480    6.60036437101371   -6.65238803793813
C          -7.27609716114650    7.55268575958298   -7.26748052048375
N          -8.50056885243582    7.77770944914648   -6.87570527368225
C         -11.31818082284592    7.89631688262840   -5.57032819575473
C         -11.29117122985102    8.83599461800944   -6.54008212804526
N         -12.36476029218649    9.60871150845306   -6.93402010624755
C         -13.69056082504237    9.39363396050255   -6.75466972605280
S         -14.71143450057459   10.79357477438373   -6.58865046659199
C         -16.10353414406591    9.76116927378985   -6.45999332114084
N         -17.35235162851004   10.37081010607650   -6.29960148673602
O         -18.32442874686097    9.64875963581197   -6.18083782432091
O         -17.36572188186807   11.59060308844954   -6.28254411436979
C         -15.79907207912096    8.43471630313091   -6.55349717861730
C         -14.42100538238304    8.18733108665658   -6.74199569494447
C         -13.86200219594234    6.90279730469915   -7.01598527864220
C         -14.56849238977023    5.75585822193903   -7.17570196863099
C         -13.93135132499244    4.52406392060866   -7.45041550989675
C         -14.51710610060332    3.36147605959778   -7.85726372146969
C         -15.84260826269359    3.08636838233409   -8.36561080765106
C         -16.65530560530179    3.96074013293539   -9.04159495716774
C         -17.91396574400412    3.60949451509159   -9.57186336007428
N         -18.94916878156314    3.37537494029143  -10.00895663383710
C         -16.28246547639476    5.27375503718109   -9.39770157570592
N         -16.00764766668017    6.32758258219443   -9.76102194929672
C         -16.05882074584417    1.64655144216420   -8.25676523403606
C         -14.83379819283426    1.02934264545980   -7.89631905294792
C         -13.80511954197179    2.06975780188631   -7.69394466139181
O         -12.63902581465782    1.91361528639447   -7.40372893575874
C         -14.70600978939235   -0.33211991357075   -7.76563588439011
C         -15.83931088439587   -1.12024768225790   -7.99268486678560
C         -17.06032898748734   -0.49281362551421   -8.33716899707692
C         -17.18977133970585    0.88393594337868   -8.47520577267799
S         -18.33311310399864   -1.65243949713957   -8.56609807767054
C         -17.22275065438465   -2.94765867948293   -8.20625339498537
C         -15.96372622345890   -2.53504452396846   -7.92603153154993
Br        -17.82908569591298   -4.72207268519029   -8.23590947797465
H          -3.66299620001739   -4.39796020215835   -1.97750273093411
H          -3.34674710790627   -1.80356031218125   -6.25518179183635
H          -1.99211199695212   -6.23803439153713   -3.26540156252843
H          -7.06235306531100    0.80573216451344   -2.91359016145095
H          -6.64313897213151   -0.92445918835544   -0.56864031964170
H         -10.09747771407427    3.18071033690405    0.06881826980428
H          -6.92142588751297    2.60573131561166   -2.03077014528001
H          -9.68401206012530    3.92062062650282   -2.22285416021785
H          -7.15315733576502    4.13106795992848   -3.76509274961940
H          -5.41465084398822    6.44921238641639   -7.00563906288258
H          -6.92652420863820    8.14063936613691   -8.10504826354230
H         -12.22070913600944    7.72101991516167   -5.00082100286125
H         -10.36659578937055    9.04926070964473   -7.05503298783193
H         -12.12482063944264   10.53279038965721   -7.27070598184192
H         -16.55904080692570    7.67712892448450   -6.51094093016010
H         -12.79459459103750    6.86049501101702   -7.17678765780876
H         -15.64344690883105    5.75791156537483   -7.08024078375154
H         -12.86682188999248    4.45983584910324   -7.24900022104709
H         -13.76019420376980   -0.77713879492896   -7.49909191085422
H         -18.14117447997522    1.31785584866198   -8.73471926499828
H         -15.15479555212134   -3.19961747751803   -7.68319451531552
