94
 SCF done       -171.181526409514          0.000893458761
C         -11.10248653402071    5.02950174583331    4.92043719525785
C         -11.27906935051750    3.92695122080951    5.71678010719309
C         -12.24128552578890    3.83675003292395    6.74254253022896
N         -13.00550307087442    3.71190964189424    7.58980847875694
C         -10.51059045682537    2.75025011418285    5.61065639017120
N          -9.90877798554904    1.77458627165558    5.55173727957016
C         -11.86967827079648    6.27175555518755    4.99519584736729
C         -11.35663142685990    7.18589269560798    4.03803595768157
C         -11.88255345561057    8.44072168576607    3.85036687120046
C         -12.97953686215213    8.80858775970438    4.63488902512013
C         -13.48703706576289    7.89301694466298    5.58571286879227
C         -12.94465421276055    6.62698607002436    5.78543232182139
S         -14.85583534046065    8.54705959537697    6.43135032375892
C         -14.73497972882251   10.01723784995964    5.49963057156030
C         -13.71768123982111   10.02213005592160    4.60583020066921
Br        -15.96629648680604   11.40168630924960    5.79104437757806
C         -10.26894911629510    6.53810424673588    3.30308590110652
O          -9.60972924597374    7.01179440451700    2.37744573591404
C         -10.13504089228844    5.19134788177476    3.86067686651407
C          -9.20552099054788    4.30308995869315    3.36719088343417
N          -8.42454922350804    4.67583503020839    2.34856552574526
C          -7.42749410009230    3.98573462708477    1.74778942657092
S          -6.91461326651686    2.41813119034509    2.28500655379566
C          -5.66940765774262    2.44395971181516    1.07660192077848
N          -4.82343507199583    1.32868190862685    0.98542941197180
O          -3.94569013826987    1.35577737195954    0.14397958065964
O          -5.03394726568432    0.41556803603074    1.76268424288131
C          -5.65424427595056    3.58128900097218    0.31640620365272
C          -6.67017316482782    4.49026535365579    0.67676974693581
C          -6.94378868568395    5.74707120317829    0.05081106319911
C          -6.06075319725300    6.44667752582829   -0.70729645450276
C          -6.32233242032200    7.69267375921199   -1.32138661933262
C          -7.53293465778124    8.27323373669156   -1.59956471506815
C          -7.69761735426116    9.57332398350232   -2.15278139788039
C          -8.98261156977155    9.91615031347176   -2.42623769085491
C          -9.92247500242912    8.89565685522133   -2.14089923181633
S          -9.10838943592410    7.51129503270110   -1.43877186816997
C         -11.27444824699205    8.90390171920962   -2.40102447240478
C         -12.05818840597192    9.99416652832369   -2.86044653270499
C         -13.35846096515787    9.68296554292527   -3.07443038275744
C         -13.69725796501331    8.31926108597768   -2.81211662504201
S         -12.26917613994287    7.47190733148859   -2.22874713692452
C         -14.89943354291786    7.75762006140851   -3.11106180465937
C         -15.32722880575568    6.38576223563521   -2.98302733742175
C         -16.10248335964475    5.86610842878716   -4.03587750743883
C         -16.46634399431919    4.54364133169734   -4.00576685728420
C         -16.11402595667905    3.72549258995945   -2.92445418139791
C         -16.65217463127563    2.37160589046661   -3.17874010170635
O         -16.57049218660744    1.37258773538258   -2.50855487924341
N         -17.29333961172117    2.45597671712246   -4.40785515942764
C         -17.23752890287947    3.72366812377603   -4.96882390734028
O         -17.72487110256042    4.03475877838668   -6.02650560815339
C         -17.98098686812728    1.34125198311432   -5.02309282411244
C         -19.41736041940681    1.23293259251978   -4.52387826539963
C         -15.41149728458283    4.22888719754641   -1.85416279572326
C         -15.00749150234509    5.56838537095482   -1.87365403091497
C         -14.38373641115208    6.16700634077047   -0.70287788088485
C         -13.45234618606796    5.63133912610084    0.08910448510323
C         -12.78344065593390    4.31170352281240   -0.13242915593485
C         -12.91240544564197    6.38572340125572    1.28483429289986
N         -13.54843013127652    7.63423801788484    1.60392300128299
C         -13.20710491640624    8.78047704799758    0.92043899430487
C         -13.97366395858304    9.85739112439701    0.79449290280549
H         -11.46886697935944    9.11717573392601    3.12068463375156
H         -13.36830428359457    5.96577997562965    6.52281234913836
H         -13.50039638971722   10.83920093503266    3.94286703521223
H          -9.07526154115984    3.30494823942702    3.76444056872429
H          -8.60530907782850    5.64872205265267    2.02857572106305
H          -4.94923178869872    3.72931747102351   -0.48071257744833
H          -7.91260998860915    6.18356222591199    0.24434931662201
H          -5.04978576484347    6.07573352231014   -0.80848171242354
H          -5.45534349848573    8.26342273660864   -1.62952004048797
H          -6.84919440606141   10.21121452861075   -2.32787315138832
H          -9.27965079416789   10.85548621021371   -2.85658995512862
H         -11.63616121663517   10.97185421210431   -3.00885664903030
H         -14.10224525455781   10.37769783082471   -3.42252052224463
H         -15.59956273545911    8.40784064237245   -3.62313205304474
H         -16.37719139859375    6.49289245138891   -4.87083057893505
H         -17.42450889692829    0.43402579447504   -4.77476037224051
H         -17.96300777971608    1.50566858584134   -6.10314207396766
H         -19.42878074023293    1.08244269203918   -3.44683861821794
H         -19.90979153453229    0.39008283020442   -5.00036638646097
H         -19.96748718870760    2.14065593392600   -4.76135358728952
H         -15.21542871865542    3.60910409788095   -0.99474684517970
H         -14.72260829628630    7.17522495611090   -0.49539009028895
H         -12.89774986406008    3.97786715806492   -1.15940232375167
H         -13.19888654872783    3.55248066391008    0.53070158359431
H         -11.72069975079405    4.39767586444651    0.09081005247875
H         -11.85156039630102    6.59031425415166    1.10474640876700
H         -12.97909567649607    5.73031021655830    2.16365037470254
H         -14.52812360729217    7.56134208926413    1.84335473000016
H         -12.19707005902316    8.76622622449791    0.53257524473326
H         -14.98030377544180    9.88647246545898    1.17638747652322
H         -13.61012070656350   10.74607289774771    0.31457037954250
