105
 SCF done       -198.248823231679          0.000805153951
C         -11.00355589363440  -10.72406970509810   -7.24619170562367
C         -10.20837713768340  -11.07168964367563   -6.17894383408448
C          -9.33103152308354  -12.17417343214885   -6.17463336414242
N          -8.59631239394748  -13.05497939480451   -6.10754955713561
C         -10.16198557213082  -10.41039583311668   -4.93520036799967
N         -10.06964356806083   -9.94637546601556   -3.88779019647070
C         -11.08335164527308  -11.45789598647065   -8.50797607517230
C         -12.05597453556201  -10.84001298226655   -9.33096079478178
C         -12.36485778951565  -11.29947741268559  -10.58719242147451
C         -11.67727159988422  -12.42336027753517  -11.05860021254560
C         -10.70642215941138  -13.03297082486821  -10.23081203258316
C         -10.39644846142614  -12.56913145169576   -8.95751540339317
S          -9.97283814145238  -14.40348472732665  -11.00840953369817
C         -10.96745220650548  -14.14069619289845  -12.41624472699542
C         -11.80665631210120  -13.08359192404895  -12.31147985546358
Br        -10.80389068568756  -15.28760256280512  -13.89187791882092
C         -12.62553920104679   -9.67498338096557   -8.62164379589640
O         -13.49145835889686   -8.93201339816661   -9.04167322292042
C         -11.91842497117128   -9.61311158164488   -7.32672807968496
C         -12.08755153661413   -8.61588793524964   -6.38851766277478
C         -12.98269271202295   -7.55521640976460   -6.50265746717169
C         -13.08122096239799   -6.55297072178817   -5.55725557344902
C         -13.95419924029981   -5.43971363373559   -5.59798132208428
C         -13.82115719155849   -4.59076749566622   -4.53931836685091
C         -12.83409182530836   -4.99365883849560   -3.61293794245217
S         -12.08992574322629   -6.49102386831142   -4.11736709571884
C         -12.42698605283441   -4.35181774134389   -2.45514442032786
C         -12.89016374398769   -3.12170502298529   -1.92783204486587
C         -12.25622195122446   -2.75373914591179   -0.78351499999408
C         -11.25508837364197   -3.66963122152631   -0.35370597705267
S         -11.16153826752439   -5.01713991541306   -1.45944138833306
C         -10.51853628027873   -3.54494824478749    0.79752559533291
C          -9.49531376353517   -4.39679361234632    1.25370579115962
O          -9.14570023990976   -4.28697789590502    2.57523079676603
C          -8.70348420207419   -5.38713210343305    0.68265606090936
C          -8.28735160874138   -6.02490189268396   -0.56939770573813
O          -8.59513355985617   -5.80646943287179   -1.71448289432642
N          -7.33419044363455   -6.95916195662427   -0.17349075621907
C          -7.01323812778239   -6.94448895115106    1.17980586760640
O          -6.19250598122139   -7.64449349470579    1.71336166811309
C          -7.88849852865584   -5.90238746928426    1.72228907202459
C          -8.18390896257583   -5.19954854260580    2.87092183201686
C          -7.62173423171832   -5.30262076182354    4.17469423834115
C          -7.88933829544404   -4.44143197999563    5.17511744905564
C          -7.33411217286206   -4.58569686538342    6.50500509857688
C          -7.29921116636570   -5.81531176463028    7.09717559520159
S          -6.69764862399504   -5.82059394253761    8.70279298545900
C          -6.41865698495895   -4.10940302905737    8.60104306477716
C          -6.80113040643822   -3.55878769212164    7.36976720973690
C          -6.53919703988022   -2.18988884019904    7.12437238502593
C          -6.87311060609982   -1.63628100175827    5.76318237543141
C          -8.28557639206134   -1.04677651938714    5.72140114097989
C          -5.97582152990092   -1.39108620876688    8.11127260272533
C          -5.71240914629955    0.06904114434202    7.84420241155724
C          -4.23520298502993    0.32009806534042    7.53552997447798
C          -5.60415043359457   -1.94951291243663    9.36176997301288
C          -4.92567674176394   -1.37945548718295   10.50922572795363
C          -4.69971888017150   -2.31565956751269   11.48004186372236
S          -5.27688546695771   -3.88517783536173   11.11959128337305
C          -5.83195536105470   -3.31952784084518    9.57528842415564
C          -4.47447670632285   -0.02225498411853   10.71679471183195
C          -3.36968308699045    0.29861332051731   11.41733771518817
C          -2.93893835171973    1.64249264998897   11.61994128896337
O          -3.64000329920025    2.69293424897219   11.11185424003109
C          -1.83277582743408    2.13775634254039   12.27540195635942
C          -0.64202009937806    1.77090346142135   13.04164768712793
O          -0.21481251294625    0.69930097353334   13.38477895031266
N          -0.04440344932532    3.00020945876389   13.32488642799265
C          -0.71110886844526    4.12034838496009   12.83314247924209
O          -0.35101441185327    5.25943928732101   12.97538278424816
C          -1.87794896092035    3.55251747705062   12.14995636005746
C          -3.00609397854499    3.85542912716564   11.42541902612396
C          -3.53196015350354    5.12347291768782   11.00466889904239
C          -4.64714939804225    5.26780282824342   10.29188083107792
H         -13.11230381287864  -10.80684240158624  -11.18915137802243
H          -9.64651095366385  -13.06909870646573   -8.36800266516591
H         -12.48859048030650  -12.77932879712967  -13.08438817400192
H         -11.47332695394256   -8.63942719068728   -5.49653908371537
H         -13.62493217027574   -7.50318278672458   -7.37007151437160
H         -14.64631195471261   -5.30170253585441   -6.40951021211121
H         -14.39855787360999   -3.69378676484791   -4.40499200233980
H         -13.66544933488376   -2.54975380613780   -2.40469367778237
H         -12.46282867115812   -1.85304117940633   -0.23299783290078
H         -10.77274162087403   -2.73452535849257    1.46779236734727
H          -6.87736782778926   -7.56837816462505   -0.83735947648071
H          -6.91141469142971   -6.10683735375083    4.29774520689212
H          -8.58365326218904   -3.63395748217339    4.99515172643110
H          -7.65642121809091   -6.73383733291509    6.67364979733993
H          -6.79057252597755   -2.44151257652561    5.03180245359966
H          -6.15051022560648   -0.87481253618362    5.47083851042610
H          -9.01736539645741   -1.77074610196352    6.07297377478216
H          -8.54253580838353   -0.75289595407749    4.70589962317598
H          -8.36028317542598   -0.17116035738452    6.36222509175073
H          -6.02486850835922    0.65611111401028    8.70620134580868
H          -6.31048143448582    0.42065043715807    7.00735840157656
H          -3.60322959794268   -0.01369639915744    8.35444610010130
H          -4.05767677316671    1.38077199538846    7.37235003682273
H          -3.94204619659937   -0.22196474411242    6.63902143476916
H          -4.24208321668098   -2.14265072585794   12.43434311567945
H          -5.05637650468440    0.78726811198437   10.30677544740066
H          -2.71823385370779   -0.45150551793205   11.83959680137608
H           0.81429956652524    3.07262371985062   13.85193078875709
H          -2.93925773010137    5.97129862275115   11.31634373244410
H          -5.23038207586502    4.41571602957463    9.98587433324141
H          -5.00462869430750    6.23791401273207    9.99681079865852
