92
 SCF done       -171.038034559328          0.000452681057
C         -12.25634377761063    0.38356808667628    3.46136194695808
C         -12.19483894392048    0.62118145753186    4.81123470740726
C         -12.10222036454715   -0.38876847234374    5.79084113759779
N         -12.01699741418338   -1.16313598269493    6.63407097481187
C         -12.21479192072273    1.90009403862065    5.40210270971486
N         -12.22841402297725    2.91786775084718    5.93486470864520
C         -12.28985800691600   -0.93102561002013    2.83053514079934
C         -12.39383234734130   -0.76282170279704    1.42738729204851
C         -12.45372292226934   -1.82203084350571    0.55553358130963
C         -12.41578931579627   -3.11271728900784    1.09444058787422
C         -12.30984948660905   -3.27196824760918    2.49668709721805
C         -12.24508320073607   -2.19929835804168    3.37788806642375
S         -12.27396816572426   -4.94872202540140    2.94864391612786
C         -12.40213806548790   -5.40759682906638    1.27143552363964
C         -12.46827142790147   -4.36019568644884    0.41512327597108
Br        -12.43343650217737   -7.22450910739703    0.80973313666026
C         -12.41740913782568    0.67517360994849    1.11033983081694
O         -12.38359217240317    1.18198766085677    0.00412463275426
C         -12.36143594060415    1.37200928416231    2.40929514999698
C         -12.24960242485498    2.72956939385417    2.55400594168638
N         -12.54536620315658    3.64899679570827    1.61413136851836
C         -13.44382676627359    3.54330137517071    0.58013792642021
S         -14.86253072502518    2.55611163286961    0.71428091249802
C         -15.45239661081110    3.23644796374317   -0.76212519284423
N         -16.67844666060176    2.76457066316523   -1.24873108776756
O         -17.10315313807287    3.24669655855886   -2.28119288056042
O         -17.23195137544753    1.90034320554031   -0.59097797482473
C         -14.61557923192798    4.17145839769490   -1.30976530178252
C         -13.44318330426627    4.35819507676314   -0.55160461985461
C         -12.40135171194351    5.27979395069155   -0.92527252095552
C         -11.10448890366540    5.13988889460572   -0.59356581980560
N         -10.09298925822094    5.99715223021030   -0.92423820519253
C         -10.20622932468248    7.30533203783773   -1.37996308151512
C         -11.20848765498071    8.18593229064954   -1.09750038093781
S         -10.92375043463570    9.73737416734447   -1.77518459197997
C          -9.43447137118633    9.21599577817690   -2.45436738293287
C          -9.16991144142630    7.90549404858759   -2.17702905034854
N          -8.05760654631378    7.19186144772757   -2.57571720823451
C          -6.90993908934886    7.73807683873877   -3.07572871960573
C          -5.91180794055833    7.01285479173234   -3.62090736649282
C          -4.69452751267641    7.56247011502060   -4.09052447335264
S          -4.30635216648848    9.25189483411891   -4.02143539284575
C          -2.73455518007587    9.04136511018446   -4.75016625577388
C          -2.53030675018966    7.68874116745862   -5.03912240820282
C          -3.63640772194053    6.85446948067256   -4.66431676596056
N          -3.61992902591976    5.51994434901035   -4.85931088139949
C          -2.54241463333495    5.04134815431614   -5.40860961315826
N          -1.45029225445349    5.72235151014581   -5.80183913994560
C          -1.44108073006773    7.01555643068223   -5.62271463498079
C          -1.85510396178484   10.12131925591229   -4.97013806191269
C          -2.13118639959467   11.40840728095499   -4.63939821456184
C          -1.26945961867742   12.52409188682603   -4.82943468163642
C          -1.62262325427372   13.85856523900061   -4.44641362604073
C          -0.57643368887140   14.71207154792903   -4.75429632826169
C          -0.42181161832972   16.10157924604603   -4.58030218112315
C           0.75641499476399   16.66674377639550   -4.99476829513234
C           1.22573062143972   18.01678451268366   -4.96438435115382
C           2.49654908154672   18.05821678920834   -5.51150231071721
C           2.85223240699988   16.73001955506032   -5.89825601173103
C           1.80706626954145   15.86774923165164   -5.59154700215697
C           1.65503057092149   14.48169469218847   -5.76528240592013
C           0.47400370655388   13.91112540519026   -5.34982170192410
C           0.00898301180274   12.56672361605765   -5.37905840662412
C           3.36239734474920   19.20018142626547   -5.69076958753465
C           3.08037416882988   20.44841528563811   -5.32816737440260
H         -12.53443761786036   -1.66165609708696   -0.50804909935328
H         -12.16333041725644   -2.37287496542254    4.43771834482581
H         -12.55133647086890   -4.46186192731759   -0.65151010682733
H         -11.86938509273181    3.14412057253458    3.47847233017812
H         -12.14539338909346    4.57549337932594    1.72421404749385
H         -14.83437705847934    4.68118555150341   -2.23045437619706
H         -12.70324412455116    6.08881849350158   -1.57243143616413
H         -10.76387769299560    4.25260015418397   -0.07685020085446
H          -9.15001241211788    5.67084503073556   -0.77704357527218
H         -12.08266762069382    8.02653070684680   -0.50132196173415
H          -8.85480167558552    9.90356198098656   -3.03405386701621
H          -8.15485888551092    6.18923127702228   -2.65892484517831
H          -6.82388924648707    8.80897027899081   -2.97201892466215
H          -5.99459144423781    5.94017031797895   -3.72932866107495
H          -2.50909936067096    3.97210825216627   -5.57316742936627
H          -0.55237762435741    7.54388541594824   -5.94664241789855
H          -0.90798470149577    9.87196646028205   -5.42760160925534
H          -3.09069495526783   11.62224429377518   -4.18305885141011
H          -2.55765272770274   14.13472487520215   -3.99165837525271
H          -1.21161297641623   16.68996446216621   -4.13411624549951
H           0.66623312713960   18.84755256782092   -4.57698918944864
H           3.78733408786738   16.45533245872996   -6.35420440961344
H           2.44455051591961   13.89268391689398   -6.21086062481890
H           0.56747627654910   11.73453414132423   -5.76507730568529
H           4.31308358720326   18.98375085193016   -6.16258458908369
H           2.14947156223281   20.71010981798919   -4.85515618725044
H           3.77457192996171   21.25399855999316   -5.49285850737909
