90
 SCF done       -167.671846780975          0.001289039859
C         -11.87439487845299    4.17484351810581    0.42784951146495
C         -11.41225011489202    4.57652475948756    1.65558898042997
C         -12.23432062733693    4.79546234572927    2.77992675136358
N         -12.84920981813842    5.00459340530948    3.72675854641084
C         -10.06082308784791    4.80644808013078    1.97383113773725
N          -8.98095451788588    4.99772238271578    2.31625364885518
C         -13.25616969262381    3.83346892432821    0.11107078984003
C         -13.31564195219780    3.37575854088732   -1.22831417943044
C         -14.48563608011285    2.97113290054865   -1.82181008676619
C         -15.65565687795861    3.01822117344519   -1.05553791270262
C         -15.58769222387081    3.48126580245264    0.28022671622413
C         -14.40299320502608    3.89077398412705    0.88016152013197
S         -17.14879375321711    3.46705878151007    1.04187907751559
C         -17.86173113651431    2.84357335967378   -0.42206443347375
C         -16.97806760757167    2.65656503921186   -1.43129327432312
Br        -19.70492274399414    2.50492886882685   -0.48104986792312
C         -11.96777915618845    3.43237725312138   -1.82395543969435
O         -11.67359771180010    3.20602780282520   -2.98224733808169
C         -11.08306999590474    3.93948882896774   -0.75845558808875
C          -9.78354117531224    4.33425824036805   -0.95045049291598
N          -8.99026953674931    3.99823780685287   -1.97949909510901
C          -9.01818693885611    2.86489990835604   -2.74818197875287
S          -9.63759050748712    1.36426663238490   -2.15420266558199
C          -9.06363503977808    0.57864094510968   -3.58361149050155
N          -9.33423345028858   -0.78488535056489   -3.71078048491201
O          -8.92380941921958   -1.35865083795258   -4.70397191616315
O          -9.96218026246819   -1.30894926670505   -2.80676241732613
C          -8.40376495223876    1.41512178979295   -4.44633894920275
C          -8.36956370316958    2.74006530157857   -3.97790539146265
C          -7.73359352133520    3.83684297793229   -4.67087706480485
C          -8.17171447723166    5.10717520508314   -4.63781504678283
C          -7.46776568053515    6.20876566020532   -5.23106746575781
C          -7.93329892206398    7.46462864975655   -5.31339885130820
C          -9.31855878589554    7.86355113173776   -4.90502480890739
C          -7.04977072066257    8.57813417682656   -5.82640084752805
N          -7.16992399617138    9.78927635279906   -5.04215948820326
C          -7.02397170027211    9.85473953308187   -3.69960356836346
C          -6.77728585414068    8.79949349214223   -2.88105331991705
C          -6.75791311619694    8.87525821014164   -1.47491866645200
C          -6.64042692768443    7.77556287845720   -0.67115172386910
C          -6.66172453925829    7.69848143614094    0.74296176097856
C          -6.57038087940464    6.43925914650198    1.25065741042741
C          -6.46286610455839    5.42833018717100    0.26822474790733
S          -6.46760199925929    6.14485412157176   -1.33758701812294
C          -6.38358896749635    4.06465500535097    0.42782031805085
C          -6.48711316529847    3.28955407666935    1.60384581181957
C          -6.43450278465731    1.94930614151943    1.38645598912218
C          -6.26756210151717    1.56164103506402    0.02499906475197
S          -6.15959100396558    3.01110104151300   -0.96349844974231
C          -6.25148100747682    0.27655536990157   -0.43433041751714
C          -6.11405449813476   -0.19794804827540   -1.77511877587101
C          -5.68457935416799    0.60254390107677   -2.84751291193380
C          -5.66449560740610    0.09773350794382   -4.12115883898325
C          -6.04577738785448   -1.22025865553498   -4.38444982554665
C          -6.39303891103326   -2.07281389988486   -3.32179367764057
C          -6.42544608812242   -1.54012765683940   -2.04804377278712
C          -6.78889840976554   -3.50372403659176   -3.53957789646932
O          -7.15775812946278   -4.10340259682813   -2.31556149458712
N          -6.08349553875334   -1.61693127832599   -5.75133393567179
O          -6.10013667836923   -0.72652268986314   -6.58551044973179
O          -6.08582292974049   -2.80141357277353   -6.02754023469681
H         -14.49851351518315    2.62401114679986   -2.84278772298551
H         -14.40340033460949    4.23855808926816    1.89949250141377
H         -17.24602208761938    2.27805133224200   -2.40063836275417
H          -9.33145358991194    5.02949300588945   -0.25243500049920
H          -8.17966369786270    4.59719013608527   -2.14840539856210
H          -7.99718199417377    1.08701083630003   -5.38654912391239
H          -6.86750882232984    3.57686678635865   -5.26356626776169
H          -9.09974344531219    5.33323121265392   -4.13360523326293
H          -6.46825582039023    5.99260429862359   -5.58616617927174
H          -9.38078321934225    7.97470975373628   -3.82191826075178
H         -10.04513960240623    7.11676684093776   -5.21310819690967
H          -9.58862909299768    8.81613970893472   -5.35350000321807
H          -7.34151730581169    8.82618204706658   -6.85203878010745
H          -6.00629302182834    8.23711245390165   -5.84573775519859
H          -7.28616676849753   10.65275639687869   -5.54376423527976
H          -7.16091570094962   10.84280659257296   -3.27965184357956
H          -6.62630609354636    7.82004361036699   -3.30861565455476
H          -6.87630298134589    9.83946741696198   -0.99883897864124
H          -6.74909583220251    8.58793719052276    1.34206056977858
H          -6.58493096511478    6.20188129631585    2.29760658875955
H          -6.62999371443187    3.74572494293839    2.56578228781849
H          -6.51398973541072    1.20659944874684    2.16045365434364
H          -6.40855125543240   -0.48730765605630    0.31654252606637
H          -5.34983179520386    1.61197830019550   -2.67964372878667
H          -5.34555865851023    0.70945323720068   -4.95141000807214
H          -6.73111064186513   -2.18935603695022   -1.24320073541796
H          -5.94667849596798   -4.04603242863704   -3.99342840913187
H          -7.61939038951800   -3.52476155642168   -4.25956290352278
H          -7.55819148188109   -4.95587011351375   -2.50928556958393
