100
 SCF done       -197.164630149767          0.000730437370
C         -11.65806332595780   -9.29427937400301   -9.75037678883561
C         -11.76494850271769   -9.89503732600010   -8.51629822203374
C         -12.16120644043615  -11.23240251526706   -8.31912247854720
N         -12.47519480247223  -12.31233312755248   -8.08310208605167
C         -11.50148041567655   -9.28720245470728   -7.27312128482243
N         -11.31309006690850   -8.88081088142279   -6.21419449900370
C         -11.93846716400396   -9.94746019088527  -11.02783321329293
C         -11.71087495716002   -9.01838579879860  -12.07203928861721
C         -11.89146170003969   -9.33191452823027  -13.39615094107985
C         -12.31902602149858  -10.62757421840299  -13.70789965554333
C         -12.54409624353461  -11.54867593171359  -12.65897618965614
C         -12.36044944096322  -11.23047210950424  -11.31815459408198
S         -13.07014780700139  -13.09066780594979  -13.26422793599931
C         -12.98029018654767  -12.48418591170049  -14.89652067052607
C         -12.57838521958907  -11.19441402966512  -14.98599525795709
Br        -13.42872724325886  -13.61078066721248  -16.32810957306296
C         -11.27479151650944   -7.73088658990595  -11.49111969203623
O         -10.99565223623727   -6.72154211893661  -12.10851605805126
C         -11.25880376461165   -7.93937987358342  -10.02968479551439
C         -10.92386822002312   -6.97199163968518   -9.10306192610093
C         -10.54665669185521   -5.66781509732073   -9.40501260929888
C         -10.24702292651465   -4.73406506264138   -8.42961486118429
C          -9.86758600556930   -3.38822145102007   -8.62816248739201
C          -9.65089174047641   -2.69342155208430   -7.47183534475908
C          -9.84911936594082   -3.46194892420826   -6.30752448734872
S         -10.31241744648430   -5.09450697332567   -6.71929616771913
C          -9.73436182336221   -3.07072770348539   -4.98093852843202
C          -9.40275988708775   -1.80305962770081   -4.45901700387790
C          -9.40435801872744   -1.75685085932439   -3.09520077906686
C          -9.73526326795398   -2.98465190447226   -2.47482169173847
S         -10.03558910789394   -4.20648312295291   -3.69096033781652
C          -9.83464000687230   -3.21315241276507   -1.11995306460065
C         -10.16908916994934   -4.41648704278162   -0.50155098588283
S         -10.48479697936356   -5.92580202959246   -1.33310030234872
C         -10.81054335963483   -6.80082569680177    0.16013076264396
C         -10.67617231770953   -5.92873727744367    1.24695573875188
C         -10.31663618499907   -4.62424232975262    0.87141045112826
C         -10.17952126866785   -3.74635035021080    2.02955313150524
O          -9.88485114159796   -2.57541149734926    2.04088566725336
C         -10.48497194476385   -4.61826131441423    3.23672735149976
C         -10.81827881155171   -6.00614766480238    2.70360267698986
O         -11.14099981717334   -6.95336782656062    3.38197838907864
C         -11.12811940671480   -8.15749263186503    0.03932223526014
C         -11.44738088685549   -9.02991101762875    1.05292203179532
C         -11.74090677101578  -10.36506965043898    0.77824077460808
C         -12.11021304439148  -11.31973646390799    1.70364599914206
C         -12.40799345595038  -12.67356343498789    1.42396366724937
C         -12.76965103183398  -13.40294931610579    2.51799104726730
C         -12.77623364892078  -12.65566528052250    3.71486217579721
S         -12.29842828512348  -11.00313587682098    3.41396105366590
C         -13.10742564882301  -13.09457606264905    4.98752736850443
C         -13.49647630309221  -14.38181374486338    5.41140364345156
C         -13.73833738220411  -14.46414315205172    6.75134061531783
C         -13.53837538647412  -13.25398019212452    7.45989056380489
S         -13.04499395350947  -12.00279915334392    6.34730776558298
C         -13.80325446739323  -13.06160788303516    8.80417510690834
C         -13.67789814147382  -11.89366957564690    9.55826040185084
C         -12.94874160962241  -10.74522676574788    9.32803499906617
C         -11.79017516785242  -10.46893113600862    8.53103638678028
C         -10.82078939886853  -11.36870137314420    8.14731023134142
C          -9.66742109455074  -11.02341928164969    7.41891428999009
N          -8.71741939994254  -10.80404021785220    6.81162755060849
C         -10.84674750281176  -12.72925048233355    8.50323265546509
N         -10.83547138872295  -13.84445659952827    8.77765042406426
C         -11.71909672751253   -9.02383973433401    8.34406879527084
C         -12.67138686387431   -8.41052203908175    9.19548574377975
C         -13.40937884362143   -9.46507152017764    9.92581311269458
O         -14.24720402610260   -9.32259844480564   10.78817888345350
C         -12.85238087583721   -7.05036659164388    9.23436085777143
C         -12.07155708930788   -6.26452724530233    8.37715587989760
C         -11.13563072379380   -6.89270835808849    7.52319035533294
C         -10.93890656227992   -8.26822047115301    7.49462474951988
S         -10.30222074311475   -5.74395645749400    6.52957408075125
C         -11.21135422024164   -4.44683043201005    7.25899642133314
C         -12.09182300111193   -4.85283855858196    8.20403203559206
Br        -10.92409271552919   -2.68035159087641    6.68596319340017
H         -11.70952173720454   -8.60130043289914  -14.16868665133015
H         -12.54693551492288  -11.96933952093364  -10.55705552697393
H         -12.46914750079627  -10.66275357927905  -15.91357935261696
H         -10.95954270989247   -7.23605609624887   -8.05301264958673
H         -10.49002069839095   -5.36203553414842  -10.43970435548683
H          -9.76929122987359   -2.97461637531123   -9.61596974700401
H          -9.35845161312098   -1.65958288639700   -7.43185735616920
H          -9.17865448624990   -0.96462750820654   -5.09332777816501
H          -9.18160629741962   -0.87996305342479   -2.51382943897839
H          -9.64923376146697   -2.38256565085742   -0.45017541225895
H         -11.31676600902669   -4.20766819621697    3.81252556881385
H          -9.62630920924026   -4.65912573471238    3.91044281528336
H         -11.12181084592481   -8.54002315282462   -0.97486919421487
H         -11.47670951431992   -8.68237677859368    2.07688175914659
H         -11.68351105995479  -10.69432770368922   -0.25253894755066
H         -12.34627349982305  -13.06608593323915    0.42441362992653
H         -13.03031089647231  -14.44541113673999    2.49458411380580
H         -13.58572040626361  -15.20678185359909    4.72823078930886
H         -14.04067466620647  -15.36199342640048    7.25975871519795
H         -14.26387452547543  -13.90559151628895    9.30203375533777
H         -14.31754704716074  -11.83204164004905   10.43441970214342
H         -13.58040530192299   -6.60318755531282    9.89291815149599
H         -10.22641428279685   -8.70454053104550    6.81470895470938
H         -12.73400885861400   -4.18835865381298    8.75279299259956
