110
 SCF done       -193.445650058111          0.000610220222
C          -3.17804869382716   -0.66419829599499    3.88000183361239
C          -1.84372861424882   -0.94083979742291    4.07078507282186
C          -1.34787853988422   -1.76377475510267    5.10019835004762
N          -0.87884103092197   -2.41922791635892    5.91934249377336
C          -0.78628494954322   -0.46917279558026    3.26831323179567
N           0.13765996265294   -0.15129672381539    2.66266958424942
C          -4.27278541424527   -1.24312996498350    4.66049227245152
C          -5.49599606925539   -0.76984641785257    4.12939326047106
C          -6.71737980296980   -1.15096059892404    4.62251552870552
C          -6.73354834409982   -2.04954477854422    5.69632920642153
C          -5.50841373824266   -2.51022232409478    6.22646337135775
C          -4.27004110358631   -2.12126749258701    5.72579780191359
S          -5.75828596936002   -3.61095146140028    7.55045833847494
C          -7.48325492906966   -3.44059005393566    7.36859385036744
C          -7.85556086296424   -2.60312236709141    6.37291219980056
Br         -8.63522917996454   -4.38970536380833    8.50734133687750
C          -5.20647708152732    0.15462532877450    3.01453357498662
O          -6.02961937679344    0.82583782357411    2.40594965230054
C          -3.75831803280161    0.16211925896225    2.85230761348028
C          -3.04710265798349    0.95643674158092    1.95768999145830
C          -3.44773894523659    1.55894166164893    0.77420709565788
C          -4.51362936432603    1.29058351959102   -0.07900940535585
C          -4.69688090935473    1.94517420455980   -1.32334020496046
C          -5.71457229416260    1.44459097360203   -2.08145110764562
C          -6.37337338931851    0.35923583946287   -1.46992666112356
S          -5.68826554706688    0.03225674283626    0.10309280624818
C          -7.44726328018003   -0.38112340579277   -1.94172665444287
C          -8.10125483622163   -0.28569404285782   -3.18732917975185
C          -9.12002048398162   -1.18020273196597   -3.34013922697467
C          -9.32608955596833   -2.02314087732398   -2.22317140316213
S          -8.16873415915036   -1.63386912117129   -0.96540547775687
C         -10.28437984989424   -3.00881450398950   -2.13239705373197
C         -10.55042734127472   -3.85118392653614   -1.05178025947057
S          -9.72578733571081   -3.71037102567717    0.48409667009772
C         -10.68160645867752   -4.97863676283756    1.14901948522982
C         -11.58642304270144   -5.47734039303080    0.27557323338220
C         -11.53879496423622   -4.86069544461173   -1.00370428312125
C         -12.26265009134193   -5.28551899750501   -2.15152938126592
C         -13.43195776780503   -5.99317992916943   -2.21131187424722
C         -13.80849140319513   -6.59290562769084   -3.55153018072457
C         -13.83206934460230   -5.51618237343129   -4.60377045634331
C         -12.88126311302377   -5.47060351272316   -5.61335492397938
C         -12.88951109257025   -4.44744561422569   -6.54464318599696
C         -13.84327487219323   -3.44082419680948   -6.48705176051130
C         -13.87817190377365   -2.35432050288958   -7.52299566546061
C         -14.77771082664460   -2.76002050611847   -8.69205475156451
C         -14.79507282275062   -3.48909374734203   -5.47541213434505
C         -14.78889924487793   -4.51008689603615   -4.54509212629678
C         -14.36034230421476   -6.15597931257217   -1.14925852187755
C         -14.56603106244384   -5.24968675307383   -0.14486103325633
C         -15.46829450096657   -5.37368048379534    0.92214035099894
C         -16.10447015314108   -6.50531030175489    1.38232763505449
C         -17.00400515013781   -6.54639644787315    2.47563506534617
C         -17.44967084583350   -7.79178913077867    2.80129134101852
C         -16.92138629258289   -8.81651062367461    1.98744565135723
S         -15.85900465572917   -8.13247817414817    0.77357582155245
C         -17.14627328217904  -10.17526535760202    2.07808218288193
C         -17.98751816992626  -10.86245696033122    2.98219755798184
C         -17.97466430635875  -12.21574487127051    2.84446556184969
C         -17.11518577815992  -12.68524763805350    1.81873902168250
S         -16.33471923410160  -11.31417154778277    1.02268311900862
C         -16.87211918708466  -13.98026101468503    1.47079647241518
N         -16.00854857094432  -14.32894693644747    0.48335589575585
C         -15.70301853474584  -15.58285426395462    0.08086944867297
S         -16.51744513082266  -16.96677647317837    0.74467571221535
C         -15.62894189850430  -17.99138788613246   -0.34164178938724
N         -15.86642035582113  -19.35964664976220   -0.26596395890344
O         -15.24998254048698  -20.09116777792926   -1.02314857849945
O         -16.68610754393800  -19.72809997180681    0.56452531609640
C         -14.77479626222103  -17.29756632936364   -1.16163113734157
C         -14.78652842119467  -15.91598420142760   -0.92424232375620
C         -13.93906915991043  -14.99102326141817   -1.65812277393919
C         -13.44278929764981  -13.83789982554534   -1.22216101925148
H          -7.63214998403164   -0.77578845849544    4.19134320851418
H          -3.36424946194970   -2.50330392403091    6.16590872554912
H          -8.87741043527575   -2.38210489891749    6.12355849460172
H          -2.01487413602334    1.15052599235805    2.22445625750294
H          -2.75924526253186    2.29946033532139    0.38191145814058
H          -4.07063244306401    2.76875467666213   -1.61845568825046
H          -6.00479532849335    1.83099964374543   -3.04190687474378
H          -7.80373257405071    0.42849417027841   -3.93357231992748
H          -9.73288140453989   -1.25961786219532   -4.22105245522277
H         -10.91126648270103   -3.13529713925385   -3.00638169568365
H         -10.50360955567359   -5.28850638158829    2.16012229548364
H         -12.24783938445518   -6.29139073751012    0.50891649313444
H         -11.77767311601274   -5.08781876273828   -3.09965685483760
H         -14.79108861540094   -7.06292284791080   -3.48257089094651
H         -13.08155775248863   -7.36070557111972   -3.82805305994353
H         -12.12752513688514   -6.24353024912739   -5.67592396011009
H         -12.14153468364740   -4.42944630151853   -7.32482707194890
H         -12.86964911451959   -2.16391431579629   -7.89571321556435
H         -14.25907335373319   -1.43181557714982   -7.08014574307515
H         -14.40761303671433   -3.67211953889225   -9.15450115263980
H         -14.80329479536076   -1.97460722294050   -9.44373804911810
H         -15.79172492510378   -2.94121336678133   -8.34349294574746
H         -15.54652712331971   -2.71463314077671   -5.41532478218777
H         -15.53128406403570   -4.52943891695259   -3.75964448562306
H         -15.03641305273555   -6.99745320174753   -1.23165153497141
H         -14.01682349765567   -4.31769339435721   -0.19154189115407
H         -15.66698406735645   -4.47506374677146    1.49290981222390
H         -17.29003028142635   -5.64747821131801    2.99291069222559
H         -18.12712165729015   -7.99924234212018    3.60978702322124
H         -18.57797967775379  -10.33611006138961    3.70997170983118
H         -18.54855751525707  -12.89735156323291    3.44581212120401
H         -17.35903644297482  -14.78798358312114    1.99646531012123
H         -15.57172035819765  -13.57337506518015   -0.03631137815204
H         -14.15283961845148  -17.78666665564032   -1.88941917050149
H         -13.67773150873234  -15.33370031527223   -2.65102347855411
H         -13.58662960000179  -13.46597562546430   -0.22121940701973
H         -12.81505924408693  -13.23557049319227   -1.85518101233829
