107
 SCF done       -194.178975073988          0.000374844271
C          -5.24209197337877   -5.72219832117072    1.14372866673024
C          -4.23451190440493   -6.61336618345342    0.86047892809855
C          -4.13339803131276   -7.89331300112830    1.43836317854190
N          -3.99532412596750   -8.93808002255172    1.89595062546985
C          -3.14450828221262   -6.35119307989428    0.00622958250984
N          -2.21503027772552   -6.20131988869484   -0.65177708831902
C          -6.31247370367307   -5.94474667504717    2.11508292864622
C          -7.06165543710716   -4.75139692995054    2.23842199497116
C          -8.10029858787732   -4.61295386515675    3.12449666137482
C          -8.41183876695150   -5.70817449724540    3.93689065295702
C          -7.68157766111966   -6.90815394392282    3.78338279115628
C          -6.63605196091473   -7.04946719430705    2.87844982902597
S          -8.23404554048617   -8.13476053530399    4.88169848304727
C          -9.39045544048643   -7.01815309417953    5.55201266720480
C          -9.38924328054241   -5.79892746909390    4.96571860936228
Br        -10.46026902943388   -7.54827211835059    6.99521866425727
C          -6.52154385269692   -3.73836549728795    1.31023871093684
O          -7.00203805664711   -2.64594260158462    1.08092151773573
C          -5.34900106011616   -4.36422874316599    0.66564149076769
C          -4.58747470131005   -3.77651272320152   -0.32638955635978
C          -4.43610567091683   -2.40288455281789   -0.56841501754521
S          -4.00957742479933   -1.85698278888805   -2.16997895909874
C          -4.07867859989530   -0.22187318483005   -1.66006613264895
C          -4.37780842309912   -0.06198933963265   -0.34050304829165
C          -4.45606433172509    1.27050226152053    0.32394419460450
C          -4.56029350540570   -1.31109815984561    0.31820901475550
C          -4.74552527466315   -1.56862273498004    1.70079548855512
C          -5.41207818516009   -0.84604653816057    2.64442227548914
C          -5.80628028509749   -1.39962932962354    3.88495219494994
C          -5.46850845803866   -2.65025611292713    4.33442927810034
C          -6.08135415810095   -3.34436039843671    5.37891709322132
S          -7.42131576802777   -2.70713889669695    6.27990112694449
C          -7.65398965708897   -4.19260544053231    7.16925570981787
C          -6.68464798215965   -5.15331539148367    6.77792560730631
C          -5.80504532834473   -4.67737171823742    5.77424324543290
C          -4.81201903842286   -5.52965968023918    5.27425280411781
C          -4.68618323205836   -6.81618826481123    5.74265788654703
C          -3.62810833214420   -7.71605070570194    5.19088320312450
C          -5.56384454386458   -7.28871822013483    6.75042289965851
C          -5.43757970031400   -8.69100470109633    7.25169994486236
C          -6.53945559341532   -6.46011638116673    7.25600983398949
C          -8.68916014871305   -4.35576177380199    8.07669062052347
C          -9.59413494170922   -3.36891286023669    8.42294250844577
C         -10.65685977213943   -3.56922101507421    9.28540182918525
C         -11.53478988838591   -2.57084976830715    9.68399297045676
C         -12.64874420188114   -2.70367706919867   10.52960173264303
C         -13.31268212212374   -1.52876810428113   10.76933619483799
C         -12.74116376830593   -0.41758840897851   10.12742508339925
S         -11.35353219418995   -0.89955214059961    9.19092620918213
C         -13.14234311622505    0.91475405226787   10.19882500764834
C         -14.23894323390354    1.45221048682721   10.89209782856102
C         -14.34088818798493    2.81399009699718   10.78663348006787
C         -13.32817643380756    3.40605707191038   10.00908954002648
S         -12.24101577908369    2.18192429168276    9.40359468775494
C         -13.15302159320068    4.76075865977469    9.76759554331391
C         -12.12377621702682    5.27199826917849    8.99418769851887
C         -11.81037539989215    6.59668166533941    8.74927425574399
C         -12.21916728028060    7.81532760234222    9.38394738152831
C         -12.66800077011915    7.97614781592229   10.67736966007445
C         -13.02784862743572    9.21657674267624   11.23598797634349
N         -13.35737313111228   10.19559975460342   11.73955983173864
C         -12.71486463840659    6.95156623065239   11.64138263302674
N         -12.72793556895627    6.17595906003626   12.48927785235145
C         -11.86373363189948    8.91748914351350    8.48687778234372
C         -11.08582533322749    8.39933988049153    7.42222744011715
C         -10.97851727848799    6.93191178766902    7.57617669760157
O         -10.36532123603224    6.16003076072984    6.86781387107046
C         -10.56206850742569    9.19490017100896    6.43441111199683
C         -10.82746448742139   10.56821399557697    6.49255923407925
C         -11.61700121801400   11.07308010031720    7.55031935241901
C         -12.14098552676544   10.26779656384889    8.55617891701448
S         -11.82943285323820   12.79371856911969    7.42482273208523
C         -10.86214088316687   12.81018047116264    5.97415622226448
C         -10.40529503375608   11.59231861595786    5.60015680534422
Br        -10.54731792362347   14.43492172865653    5.08940378732554
H          -8.64378203912636   -3.68428151262265    3.20063796389286
H          -6.11160772100094   -7.98635112031529    2.79900914178178
H         -10.03977018462496   -4.99245848083764    5.25189395960117
H          -4.06223793815419   -4.42859234678926   -1.01460335165966
H          -3.88765645972873    0.55432934504973   -2.37619014624375
H          -4.01961558937081    2.03605901054336   -0.31266418660763
H          -3.92694266060267    1.25264594118346    1.27473835281448
H          -5.49570526970000    1.53515274466691    0.51369092251686
H          -4.40912547536570   -2.55736958151604    1.98657676598599
H          -5.81110208164083    0.12512545755323    2.39842997456611
H          -6.51763535951260   -0.82951463709751    4.46875306246668
H          -4.69661314802542   -3.20519894835019    3.82017443226965
H          -4.13443060351561   -5.17463199992587    4.51183265537660
H          -3.01261340484051   -7.19117089520912    4.46490636948896
H          -4.07189288780440   -8.57972642065881    4.69696651313101
H          -2.98423587856046   -8.08662935013097    5.98700172231954
H          -4.45710572606464   -8.85169666380206    7.69808633468632
H          -5.54619578264302   -9.39975292422832    6.43162671072649
H          -6.19762853041740   -8.90442731851701    7.99859028383128
H          -7.20263139191017   -6.82430626166908    8.02659729771923
H          -8.79446441622835   -5.32798330203576    8.53894535495472
H          -9.46353125989310   -2.38122557919720    7.99687520065620
H         -10.82791765240369   -4.56185223139008    9.68181464882257
H         -12.93461332497718   -3.65555595094833   10.94115812906669
H         -14.18245551397281   -1.44413250276417   11.39503877227758
H         -14.92399443838607    0.83775996778778   11.44790872304041
H         -15.10561944887712    3.40527159839558   11.25734184684589
H         -13.88271388480545    5.42388957082083   10.20830506670314
H         -11.52054075712833    4.56049368768352    8.43685640636556
H          -9.96506961423993    8.77387487146484    5.64069635321084
H         -12.73972834320910   10.70015528661247    9.34046712126403
H          -9.79569711812465   11.42011476180839    4.73191513721962
