114
 SCF done       -197.119291481887          0.000382657752
C          -0.10625813990823    3.02251891906252    4.05900964098896
C           0.86905079249313    2.49283684181886    3.25518650517131
C           2.25111350392590    2.71047233900665    3.44326807467329
N           3.38689085249384    2.84807227723958    3.53681374038971
C           0.66961848615171    1.63774223074312    2.15000126762338
N           0.61599200263490    0.93406008779291    1.24340804604742
C           0.13688354445116    3.85336258427264    5.23035268711796
C          -1.09724287884465    4.09194567576079    5.87964180466192
C          -1.20258864881004    4.85279796998524    7.01877586805440
C          -0.03197762278052    5.41172045815064    7.54039339096471
C           1.19864290730848    5.17088093537606    6.88291019047704
C           1.30484954827953    4.39769898132521    5.73442365095290
S           2.51912585977828    5.96310674748414    7.68831667253699
C           1.41569918776662    6.59846184422682    8.87975037450538
C           0.12487162391620    6.23678725635486    8.68739475577538
Br          2.07145944923395    7.68224541451000   10.26257006963152
C          -2.18896776445335    3.42939632332105    5.13703692089644
O          -3.35564705985918    3.42619105116804    5.46034035067322
C          -1.54684388989278    2.82372791867064    3.94066603223284
C          -2.14185475877087    2.29383735517312    2.83572904457492
C          -3.50537652864400    2.03292659743006    2.51855234255197
C          -3.88201986288484    1.77243136361901    1.24916612969371
C          -5.35845127911044    1.63297019357851    1.12621630302292
C          -5.83281814931696    1.42266091809433    2.58149223746232
C          -4.69336757793498    2.01245729482116    3.43558314156849
C          -7.18552697152252    2.14429851724152    2.69019548809359
C          -7.08731070489504    3.30094839795910    1.67449796818654
C          -6.81618980836878    4.50229232912536    2.54418483215192
C          -7.01441986518992    4.23236254466685    3.82341695637730
C          -7.45307026686422    2.81481498853870    4.04616423775837
C          -6.00074223105850    2.93920904979087    0.70638434538482
C          -5.64228520219419    3.71235023523808   -0.33232493068540
C          -4.66870521402373    3.39869697058206   -1.32096325934550
C          -4.10500926675143    4.32169345604299   -2.14820997392152
C          -3.15016947312629    4.09004032204491   -3.17742332563665
C          -2.71095394156534    5.21375299668228   -3.79782380929083
C          -3.27841256456222    6.41206175675535   -3.29448673756387
S          -4.42521015187974    6.05156871601053   -2.02114831376124
C          -2.99079960160821    7.70379920175508   -3.67067640629351
C          -2.07217077401494    8.14151850073010   -4.65547829245055
C          -1.98093091497382    9.49121057075518   -4.76299060647695
C          -2.81872562978737   10.21774504676653   -3.86948589658172
S          -3.74372830167714    9.08458274863762   -2.89478201199643
C          -2.89648893302167   11.57962941370293   -3.80299193788926
C          -3.71360927124736   12.38110066755066   -2.96869513658992
C          -3.79494149985751   13.73383506819828   -3.07341997570503
C          -4.87417551670705   14.20843192948900   -2.16319927309940
C          -4.80127043112661   13.15528222116565   -1.05137831343418
C          -4.61847631035148   11.87165839653033   -1.85758554146040
C          -5.95989177912395   13.54002315786976   -0.14274497600320
C          -5.83792021205059   15.09459690556031   -0.16815758759772
C          -5.11148638975093   15.38907162133785    1.11703080626735
C          -5.06241536860528   14.33505343378540    1.91292140525848
C          -5.74314533143504   13.13686288119816    1.32129765298256
C          -5.09599928017537   15.47935667976316   -1.43228199868982
C          -4.77331767001237   16.74386032680736   -1.75564262396048
C          -4.13144059951156   17.20398825273760   -2.94340606440460
C          -4.19835940410434   16.71924025196799   -4.21244762509806
C          -5.05043753220947   15.73079849086163   -4.83221323405580
C          -6.35494097825532   15.45381878091289   -4.50768836789512
C          -7.14736267713351   14.51203381822516   -5.19303236221928
N          -7.82285459387286   13.73379702265936   -5.69967246490338
C          -7.07293118529238   16.14223045578778   -3.50912624662122
N          -7.71559200518683   16.68113308852271   -2.72542805090107
C          -4.33825625171244   15.21435898089535   -5.99576998100697
C          -3.21070902493045   16.03818036940985   -6.24008483414699
C          -3.13734286848076   17.08124626209539   -5.19293495067162
O          -2.34719939075979   17.99281364316654   -5.11114779189688
C          -2.33419690918102   15.79802274754053   -7.26978002815866
C          -2.56640460742979   14.67799462249594   -8.07633509210225
C          -3.68140656461216   13.84967471473150   -7.80712645939026
C          -4.58268687054167   14.10491223602327   -6.78092621930014
S          -3.75354699317014   12.49902680442741   -8.89802650066892
C          -2.30828424204084   13.06282954545552   -9.69637290344329
C          -1.79610844180030   14.20127214846672   -9.17322972869996
Br         -1.60860695304562   12.08747387153283  -11.13873378699117
H          -2.15975923847105    5.01479405659226    7.48919762298755
H           2.26477376415474    4.24950597166149    5.26927920621209
H          -0.68461154007128    6.53977397296624    9.32604499694829
H          -1.47747130597196    2.05224840564978    2.01368885932778
H          -3.21503906165985    1.73739661131649    0.40544213919230
H          -5.65514819728786    0.82982300787958    0.44455136414602
H          -5.94136639020030    0.35967093425113    2.80866747227041
H          -4.49647752157109    1.42362650769747    4.33000626270698
H          -4.91905572419909    3.02990788344405    3.75212795435213
H          -7.98167058137006    1.44599737864443    2.42503902106364
H          -8.02276659599691    3.46661570816450    1.12567638389658
H          -6.51574045187023    5.44342222135226    2.11917019515770
H          -6.90502032831884    4.92200447951161    4.64245800574935
H          -8.51928501180248    2.79134395783185    4.28764223952056
H          -6.91888716661263    2.33574260728095    4.86588417941908
H          -6.12847455723237    4.67501991265737   -0.44391932262469
H          -4.36298445156055    2.36878411124065   -1.43913783445436
H          -2.82322973233839    3.09338148522497   -3.41696832224772
H          -1.99050246293473    5.22309816931985   -4.59598917290768
H          -1.50723724759653    7.44716732071054   -5.25118532538141
H          -1.33468405903299   10.00419424550082   -5.45351749121361
H          -2.27089650368694   12.12409523070264   -4.50112299083279
H          -3.20401448484092   14.33596684776905   -3.73596434106004
H          -5.83390900185626   14.02739445868591   -2.69644750105651
H          -3.87342067294974   13.32919266498251   -0.49226541640795
H          -5.56527485229053   11.51245462354923   -2.26975414310204
H          -4.16138924420937   11.06504425826526   -1.28752074671666
H          -6.91212400594679   13.18954143910185   -0.54345288879825
H          -6.80915801053744   15.60244286305186   -0.16065360612736
H          -4.71351409287899   16.36678976385822    1.32290597842246
H          -4.61469142974667   14.30162095995308    2.89123127020299
H          -6.69336473466139   12.95621473036039    1.83017383183806
H          -5.14160529960122   12.23087301928090    1.41043802367941
H          -4.95095563134016   17.50995013690902   -1.01029581562852
H          -3.46021640842579   18.04903793174608   -2.81893187214478
H          -1.48690856431319   16.44345086649335   -7.44059547503814
H          -5.41456683479011   13.44321648357192   -6.60531982256453
H          -0.91053899145633   14.68600003440474   -9.54174223200556
