95
 SCF done       -170.390931254843          0.000649708065
C          -7.01856210269518   10.75127855918205   -1.43375375660447
C          -7.34365213305462   12.07486667344893   -1.61975524770084
C          -6.74959984611114   12.90191580497043   -2.59094525123776
N          -6.29714183667991   13.61838265270681   -3.36739184663573
C          -8.25702998401755   12.79070249215268   -0.82043272099774
N          -8.94552226400244   13.45190510865670   -0.18078496180475
C          -5.95497269365703   10.03280254905304   -2.12863391479209
C          -5.82641040869100    8.75381545592042   -1.53693002049455
C          -4.90453675568113    7.83109997932180   -1.96354137856082
C          -4.06988931502921    8.18796718520311   -3.02967441177224
C          -4.20964880191985    9.46586475484231   -3.61659986198456
C          -5.14190159358743   10.40180550834211   -3.18160325099219
S          -3.08675414386940    9.69587488587061   -4.92374440581506
C          -2.45210649124314    8.09297783411943   -4.66404853266513
C          -3.04832483134246    7.41900869476035   -3.65288208903210
Br         -1.05682172120837    7.46161328746407   -5.74901138036246
C          -6.82606672451432    8.61012054904628   -0.45357228381232
O          -6.98048406844945    7.61361514443389    0.23254027841370
C          -7.59109290335618    9.86308973633897   -0.45454020048801
C          -8.81935410786704   10.06801141167353    0.15268184385475
C          -9.40260592196232    9.35198124554418    1.19225203467968
S         -11.16330245080111    9.36365425222369    1.34302768653334
C         -11.14387194983657    8.24352235685224    2.71450327925822
S         -12.52282708345103    7.69072460428402    3.46066074304372
C          -9.82442209473854    7.95864768698494    3.02081082746857
C          -8.85847315836198    8.56552509169272    2.22149884049523
C          -7.49793542970673    8.37284809422308    2.65014182106778
C          -7.35314794440569    7.51391370464067    3.67431166961430
S          -8.99195491518987    7.00393651264681    4.27804863298076
O          -9.16526432285528    7.56696343152399    5.59075488096633
O          -9.19924363439291    5.59283763398202    4.13251050529607
C          -6.23049767770973    7.02096317483631    4.39843410030784
C          -4.97718396560130    6.84990048563224    3.94816620536168
C          -4.52353496181538    7.19574944272888    2.56726064566054
C          -3.91627829475044    6.33394618863519    4.89019549852146
N          -3.05872532689684    7.43340924607063    5.27339311860271
C          -1.74222957975472    7.51212244345746    5.07674386080218
C          -1.01110445269726    8.65240945821298    5.28188678395853
C           0.37747980740081    8.71819657477609    5.15833990609323
C           1.11390500210045    9.87568819627066    5.30317934993028
C           2.51385189152225   10.02045340983169    5.25525924441027
C           2.95165514968232   11.30615958368933    5.42352202069525
C           1.91470930335705   12.23960795230175    5.59466017964150
S           0.36414824385455   11.44487197007665    5.56595477169253
C           2.01532818768353   13.62047636998769    5.74382331932545
C           3.16923794591910   14.40911386628703    5.85506121286440
C           2.90697979391687   15.74812925468414    5.97030919224528
C           1.53731149101296   16.08566809615709    5.95029131994904
S           0.58678728568781   14.62442369263669    5.79975737527374
C           1.08254461715571   17.39620554501673    5.92680321221550
C          -0.18081910870465   17.96779444588601    5.82373344190323
S          -0.19618975092414   19.64696370528136    5.31486504926789
C          -1.91584252843964   19.70778620381743    5.18861156211972
C          -2.48096191696485   18.48460536502101    5.58589421432017
C          -1.51527278879768   17.51000057957875    5.97799046457373
C          -1.97106022926782   16.30942125244813    6.52188175265010
C          -3.31880992803788   15.99894501941168    6.56790833263540
C          -3.66461653079697   14.68310363511008    7.10596064563804
C          -4.59080960491601   13.85617715157504    6.64022748448410
C          -4.27859969871043   16.95063467081773    6.12962237033767
C          -5.75058769523216   16.69079072356842    6.21440688975321
C          -3.84797219855966   18.17196898800735    5.67208653900370
C          -2.59726559535515   20.87582245566673    4.73746320585137
C          -2.00156543340562   22.02332188317731    4.39759700279217
H          -4.83064887028682    6.86183026131006   -1.49558308670721
H          -5.21626223127946   11.36140235222430   -3.66536947989972
H          -2.78329038002390    6.41961354430905   -3.35947616235810
H          -9.45536197594138   10.83017691405066   -0.28404236713577
H          -6.69802820357710    8.94369255855390    2.21210177318872
H          -6.48812634491993    6.69093117784923    5.39804147818241
H          -4.18326919276561    8.23123647643296    2.51532325661406
H          -5.34080919513102    7.07607674766072    1.85788208473877
H          -3.69332453590921    6.55904306883884    2.26739575237936
H          -3.30426928097050    5.56403930745460    4.41496152223793
H          -4.38271296126733    5.91052057617860    5.78648211920390
H          -3.53972850859690    8.26957675266097    5.57728017785051
H          -1.25520655068352    6.60138734696822    4.75402164442397
H          -1.53247975344226    9.55892931339076    5.56131706783703
H           0.92285744984260    7.80949718699984    4.94004116410835
H           3.16186936607246    9.17551552560679    5.10251980910408
H           3.98600038375729   11.59847703744852    5.41425226047689
H           4.15743959396256   13.98621222206687    5.85121085920551
H           3.66762013885876   16.50329830837969    6.06138194741139
H           1.89082603808635   18.11981469326488    5.88581883820127
H          -1.26589563932758   15.60165047757366    6.92283997417073
H          -3.03368292407338   14.35868937556727    7.92528425351575
H          -5.20649439652143   14.09039483742719    5.79019723025693
H          -4.74525031027465   12.88719803433686    7.08428672168340
H          -5.98795045919490   16.04518613024436    7.05613498100794
H          -6.10443439202955   16.20812740260748    5.30364388838501
H          -6.29209934946997   17.62810878424544    6.32165520924050
H          -4.57701088990480   18.91449668611988    5.38483886171339
H          -3.67343919326877   20.79169100241533    4.67360500699617
H          -0.93132767432777   22.13829396643228    4.44834808862129
H          -2.56758957655209   22.87262801851825    4.06055732466795
