115
 SCF done       -189.288702978006          0.000598677916
C          -5.21060805159850   10.63373115587522   -3.94193326248862
C          -5.46573641226599   11.70394595950038   -3.11513416696250
C          -4.49364206103716   12.63034186142684   -2.69488891326916
N          -3.74362813187361   13.41743586448881   -2.32414531329806
C          -6.71993353124259   11.93539511564165   -2.52184943502391
N          -7.71572244224976   12.11067904135420   -1.97415999556404
C          -3.89978124426064   10.19271995008406   -4.39089652998243
C          -4.03962185691832    8.92643743046862   -5.00876248365049
C          -2.97092801223205    8.24140170000184   -5.53014824449045
C          -1.70338082961916    8.82372217448635   -5.41916175251429
C          -1.57071696722580   10.07096918830074   -4.76608409493507
C          -2.65367275869816   10.77657663278199   -4.25957437475741
S           0.08976306260080   10.57754251793202   -4.69122216346370
C           0.57297723246796    9.14349404010284   -5.55227191694371
C          -0.45474179061186    8.32590536293355   -5.87916326593686
Br          2.37724292599923    8.86441586158069   -5.96846731659642
C          -5.46120812783066    8.52266664667195   -4.98965520707636
O          -5.93767702269050    7.52151729815880   -5.48724238377296
C          -6.17782238741865    9.64943013072203   -4.36301459396340
C          -7.54108395242033    9.81303942574969   -4.33108389053840
N          -8.46984637919186    8.84714421004537   -4.42569424097344
C          -8.27149342946128    7.49367638187287   -4.14379530388733
C          -8.84643063220968    6.46751964814745   -4.83094377882668
S          -8.39072813021934    4.94246928893069   -4.20223954616118
C          -7.45828433683574    5.67839372384288   -2.96349878232658
C          -7.47744058770122    7.03821991257302   -3.03634885616474
N          -6.88012181977872    7.90170813774290   -2.11843735579701
C          -5.51607308301809    7.99721194506863   -1.92144692753140
C          -4.59440643915019    7.13771386713387   -2.37481629385546
C          -3.16132388383855    7.28550239889575   -2.23035237656192
C          -2.34536541875561    6.16951999929356   -2.47160941821037
C          -0.97871140767479    6.29317381914954   -2.42494706228113
C          -0.39146419581958    7.55589984260903   -2.22266866217388
C          -1.18430463692820    8.65620650506886   -1.93460954040671
C          -2.55642144528092    8.50700815271453   -1.91570101549909
C           1.03670086758757    7.43575628821727   -2.40891937858653
C           1.33885071079974    6.08854249010120   -2.67806851707853
C           0.09367984582903    5.23491659014232   -2.55078513713094
C           0.23407165197425    4.47690570597842   -1.20501590860596
C          -0.99426316083681    3.69187747016489   -0.76434695942405
C          -0.10596617713224    4.25606279049031   -3.71112730201908
C          -0.16869331670603    4.96211240206355   -5.05791582730618
C           2.62353660551759    5.69598481479058   -2.94747718748018
C           3.65451034489243    6.65277763108414   -2.97607364814242
C           3.33372387788525    7.99271549148034   -2.70300154972648
C           2.04488892479095    8.39003439215210   -2.41467076112094
C           5.01660269526555    6.30998278860352   -3.27393065168178
C           5.50763574572892    5.05457173545113   -3.43576582208178
C           6.85324983783677    4.75671113785981   -3.72232050258014
C           7.33736386212021    3.48038040017923   -3.84024957420516
C           8.66816106055575    3.07988574148834   -4.11795629264469
C           8.85570499732626    1.73227102216433   -4.15604520385417
C           7.68514416248040    0.97983317093347   -3.90868495161714
S           6.32581043223629    2.05321396875807   -3.63862543495154
C           7.54464785700686   -0.39006977241465   -3.85487375927973
C           8.54329431186244   -1.37934771386526   -4.01776710672991
C           8.08750167188226   -2.65123194963302   -3.88060078645620
C           6.69779765586733   -2.76000256684856   -3.59131143898231
S           5.99696096413847   -1.14360504917692   -3.53045114727944
C           6.01088785031635   -3.93322950041294   -3.47758980446261
C           4.63997841163851   -4.16277723485755   -3.16788683331207
C           3.75254940384683   -3.47506077461367   -2.33615319940781
C           4.09001255142727   -2.36050222020409   -1.41470655536265
C           2.45595467959180   -4.09128663049739   -2.37055208645327
C           2.55905333561871   -5.18956261072412   -3.20268559417649
C           3.92376912297473   -5.28174990339921   -3.70806216028469
C           4.24152918647169   -6.30541271744019   -4.55319210289384
C           3.22566330240517   -7.23502871222239   -4.87723454426964
C           1.97359943975811   -7.07529229850246   -4.36524074560152
O           1.62213539335881   -6.08579941922967   -3.55325909979885
C           1.28936499476118   -3.61838358193134   -1.66352647941779
C           0.10531782966287   -4.22424933429749   -1.63746473613765
H          -3.10532933167498    7.28125975857618   -6.00319945298405
H          -2.50913984839471   11.73439192195625   -3.78753622936162
H          -0.33608133000116    7.41328651399710   -6.43214737625065
H          -7.94754990249715   10.81454739484651   -4.24065679235677
H          -9.40150389516876    9.11379669951039   -4.71253335863333
H          -9.47202379376647    6.52687721162258   -5.69839311158677
H          -6.95733018593745    5.07106731371340   -2.23776399827896
H          -7.39282167291623    8.75747447059696   -1.95477118546040
H          -5.24066160588200    8.85170798637901   -1.31959413081775
H          -4.91814041006266    6.26982911893383   -2.93177142317832
H          -2.81151205577010    5.22105844842645   -2.69723661031113
H          -0.73912279453302    9.61964279188413   -1.73228738343190
H          -3.17073932037186    9.36602909674911   -1.69146748386024
H           0.47563423907098    5.21107739434577   -0.43185240390266
H           1.08514564666615    3.79745518974129   -1.29215943499460
H          -1.84945349603533    4.35152315164315   -0.64142267885308
H          -0.79297102302340    3.21429864179314    0.19237689701022
H          -1.24767458113410    2.91460879118618   -1.48055091169734
H          -1.03299185750902    3.70183312876114   -3.55886700831595
H           0.71670907303078    3.53788781639647   -3.71185059011490
H          -1.01254384261629    5.64833786875950   -5.07370663381054
H          -0.29128905197563    4.23841400452676   -5.86115436531461
H           0.74714134481549    5.52305826459015   -5.23377460740691
H           2.84197315466083    4.66044871934254   -3.15632504214894
H           4.12481271693767    8.72878020908374   -2.72418311581835
H           1.82391194960666    9.42741076252279   -2.20734665148562
H           5.70432170781514    7.14244023245469   -3.36035706772109
H           4.85356223934685    4.19896576891906   -3.33206899075701
H           7.55034173558079    5.57380684276982   -3.85365461980873
H           9.44527247992566    3.80694097143166   -4.27764576607299
H           9.80134021928895    1.25828083380305   -4.35152203524347
H           9.56582026551444   -1.12116730545691   -4.22865865719521
H           8.70394252672645   -3.52930046795267   -3.96775739710709
H           6.58028907743392   -4.82360400103212   -3.72177178719923
H           5.15743598814070   -2.34218957031335   -1.21340688993018
H           3.55872294627581   -2.47890282538395   -0.47213570698338
H           3.80797799434707   -1.39871404730065   -1.84445903129573
H           5.23035507545770   -6.42309169702763   -4.96895285685880
H           3.43158014957591   -8.06601893294842   -5.52974750261652
H           1.15357565974561   -7.74535579755185   -4.57801472616714
H           1.41803576220495   -2.68567595176038   -1.13129105126145
H          -0.07595961365423   -5.15208055990443   -2.15072430739943
H          -0.72473508488764   -3.80597539592498   -1.09432926677610
