97
 SCF done       -190.897254681531          0.000923954430
C          -5.58633963701993   -3.32897017378395   -6.91537983053045
C          -5.44972413762035   -4.64083112034608   -6.54141783929532
C          -4.99369887735328   -5.66574678188928   -7.39465045005634
N          -4.63357845127840   -6.54076062124922   -8.04465634421489
C          -5.77367847368771   -5.12809825456053   -5.25926253745911
N          -6.03032803690596   -5.56358123419380   -4.22838812640911
C          -5.28462213836773   -2.77503771823433   -8.23253121832426
C          -5.63707948392091   -1.39983383765836   -8.24448236308786
C          -5.44596150247166   -0.59377685939817   -9.34082697081910
C          -4.86209561175674   -1.16574636701258  -10.47344341371821
C          -4.51759611747236   -2.53830737648250  -10.45680267032027
C          -4.72416576292798   -3.35799305392008   -9.35229201864553
S          -3.80355406312164   -3.02925883345591  -11.96071680821850
C          -3.96573410242690   -1.40310806634192  -12.57534787774855
C          -4.53138448189793   -0.53583716228105  -11.70384365822626
Br         -3.37324258181252   -1.01407429055230  -14.30925156139836
C          -6.14694636231830   -1.03250591321261   -6.92524093611392
O          -6.54874602563315    0.07346337925348   -6.56359929562084
C          -6.06364675772630   -2.23881077356676   -6.09537568744595
C          -6.33345719534618   -2.20314572092884   -4.74763441641639
N          -6.68446124648466   -1.03931167519495   -4.18884741631309
C          -6.91573444013139   -0.73724703525299   -2.89148060289521
S          -7.13718323716254   -1.93744805589471   -1.66265251948645
C          -7.38531252255034   -0.66562255195301   -0.50413979516205
N          -7.64187878356734   -1.03316094816961    0.82303409685427
O          -7.82092842350918   -0.14084582585221    1.63131441596349
O          -7.67066721305983   -2.22629311375333    1.06837761650130
C          -7.29359855220081    0.59403515642389   -1.03188709259535
C          -7.01710771651595    0.58329850684311   -2.41320090072976
C          -6.79578717453296    1.70857269635995   -3.26406244445478
C          -6.89103883670787    3.01743967544887   -2.92993142236341
C          -6.62977916695111    4.07962637645242   -3.84274912519414
C          -6.00405141761827    3.93264831346913   -5.10478573522596
C          -5.98715010569423    4.99889556536906   -6.07758547552039
N          -5.63273908896187    4.73217449891329   -7.32981092361417
C          -5.16519445406250    3.53876063102827   -7.64487269045734
C          -4.88808171550078    2.59757502194392   -6.60624609050956
N          -5.34410862356507    2.80194035590322   -5.39513853486591
C          -4.10115696560425    1.45223893512044   -6.87190159059286
N          -3.46106096051074    0.53700330416801   -7.13200794443212
C          -4.93896141983785    3.18248327510402   -8.98933742617047
N          -4.76773811381595    2.80101492639837  -10.05861741044053
C          -6.37372443308140    6.34460416353656   -5.74760322082777
C          -6.86338464367406    6.51077103477189   -4.42265594508477
C          -7.01575081776580    5.40037946465850   -3.51389465583561
N          -7.54490669816817    5.77853403427095   -2.35250887086007
S          -7.81362397439200    7.36589157899499   -2.38021066900645
N          -7.27885065782803    7.64531813520487   -3.88024145855882
C          -6.26432513484616    7.32647242888624   -6.72665236493415
C          -6.50027326490104    8.69550497506867   -6.69964383919026
C          -6.30872355940274    9.52001615611806   -7.82794559862182
C          -6.54181520086286   10.85233709442075   -7.60805599653091
C          -6.92364624640335   11.12559564272261   -6.28870009793520
S          -7.00235522257482    9.66032405391449   -5.33948958937036
C          -7.21579485312435   12.35766414298262   -5.70161137834037
C          -7.20774407648889   13.63726324722881   -6.28005186005594
C          -7.53210770735358   14.63706680952298   -5.40289509711421
C          -7.81115127174350   14.19618056555175   -4.09177175446253
S          -7.64784487664233   12.45016203527500   -4.02053981002231
C          -8.15422280248758   15.00861457346968   -3.03010316292788
C          -8.44124061464089   14.65293812466069   -1.70567054335091
C          -8.45587908043114   13.35512782242243   -1.10612318231135
C          -8.79832542150411   13.48641975542771    0.23133161606443
C          -8.95131755802795   12.52516497306691    1.24381747522205
C          -9.30868518643436   12.96924095926527    2.49613493024227
C          -9.54327166458529   12.27974059726136    3.71181892275933
C          -9.88695042308980   13.20448872298149    4.70069236693833
C          -9.87219146799966   14.49482217029969    4.12010981131996
C          -9.52079657045791   14.38270150570202    2.76765960044214
C          -9.36906024739469   15.33951065178623    1.77149283779114
C          -9.00870693592721   14.89960898893673    0.50099372032628
C          -8.78363219656978   15.58703525577220   -0.69681807299537
C         -10.19763040880231   12.86109532928032    6.06791039990556
C         -10.53563224582746   13.72318456738492    7.02315036096332
H          -5.71738470605296    0.44940783948950   -9.33073515249019
H          -4.43762532114506   -4.39611136595909   -9.38484766844755
H          -4.69772216609161    0.50775632187051  -11.90051456303454
H          -6.24565477676806   -3.06832516569319   -4.10318633540801
H          -6.72484935710070   -0.26200095032077   -4.87746245667145
H          -7.41490430824726    1.47911609333064   -0.43509738092275
H          -6.49899828923001    1.48962312899241   -4.27791712460481
H          -7.23246668998062    3.32758290795861   -1.95253085651330
H          -5.91602844048424    6.95029457923388   -7.68226247683686
H          -6.00030471939797    9.11019244223125   -8.77365139226817
H          -6.44104739220277   11.61534604999676   -8.35905732159151
H          -6.96576656166325   13.79570321919782   -7.31533945905352
H          -7.57590442751379   15.67947517920230   -5.66569654743606
H          -8.20668600235087   16.06747984799540   -3.25617510883891
H          -8.23911522580851   12.42887242335040   -1.60269992178800
H          -8.79268752849795   11.47665190676148    1.03587711524675
H          -9.46862152332444   11.21600440418195    3.84703883390163
H         -10.09373156582301   15.41470076479708    4.62863169487555
H          -9.52645890335334   16.38911179141423    1.97563509077220
H          -8.85677386132175   16.64996338563310   -0.83764922820442
H         -10.14096291208535   11.80417441078531    6.29622837770566
H         -10.60576782383273   14.78223242207247    6.84326389277367
H         -10.75528205433845   13.39526154963978    8.02410615110087
