114
 SCF done       -200.270920562689          0.000428761505
C          -7.42589793815617    3.45408590345647    5.49487488064255
C          -7.76596281166982    3.37857460630469    6.82638060393834
C          -7.38719778197297    2.32342274322055    7.67927719164331
N          -7.11300891015717    1.49523976232453    8.42678579205749
C          -8.53160256509433    4.32488229450984    7.53466085751115
N          -9.14722389937624    5.04987296824601    8.18103651457171
C          -6.62969569594337    2.45743618093850    4.77925577378647
C          -6.48966656161345    2.87528250767584    3.43374099602335
C          -5.79023899628315    2.15414526640930    2.49894821294491
C          -5.19548303050021    0.95660192825957    2.91264262039825
C          -5.33969293877336    0.54592446530594    4.25735922848250
C          -6.04987212558937    1.27785127969790    5.20306433209666
S          -4.52533894114430   -0.96032227526375    4.55626069270860
C          -4.00955702848985   -1.01522007386252    2.89178623819915
C          -4.42425212357939    0.03775931993930    2.14893628386827
Br         -2.97057616514941   -2.45747547223125    2.29083012484888
C          -7.19600188884663    4.15811209211979    3.25620509255286
O          -7.27495396323933    4.79280165334680    2.21477999945732
C          -7.76499171042343    4.49543097391149    4.55602258974020
C          -8.50349664006399    5.62943691618183    4.85049130972081
C          -8.86791265319934    6.70357669555594    4.05422443359633
S          -8.46766639744280    6.92225840592810    2.37167383334005
C          -9.26106674474984    8.45936229809505    2.29339681435758
C          -9.83640724993215    8.81178311559461    3.54127481157801
C          -9.62130717489325    7.81881767333702    4.53310304785616
C         -10.13322525774282    8.00523560109995    5.82092795523576
C         -10.84244723808711    9.15993210808604    6.10109539088179
C         -11.37307385721763    9.37029723856420    7.39547520645888
N         -11.81398098737997    9.56431105887344    8.43527898640925
C         -11.05532853997962   10.14618724932591    5.11560220398584
C         -10.55859294117414    9.97393490330295    3.85186228611969
C          -9.27200730325842    9.23070738012788    1.12398164481022
C          -8.77906235122175    8.77331969699116   -0.07173597016448
C          -8.64545693137703    9.45590846220013   -1.28577698950127
S          -8.28957465647021    8.49819164028558   -2.69799191922846
C          -8.20014648431833    9.87280196131887   -3.74983082172868
C          -8.49285825381878   11.05359324897247   -3.03443872616574
C          -8.71280971917487   10.82551482096478   -1.63945911351940
C          -8.91755496988784   11.92479225706062   -0.79602777027912
C          -8.99940719064142   13.19430003811097   -1.33346902487949
C          -9.20937652553230   14.30069105030343   -0.48052444595964
N          -9.38239274820926   15.19881819629180    0.21111646545312
C          -8.90163629188856   13.40268187190454   -2.72740584846367
C          -8.64553858739103   12.35080443797786   -3.56029445603608
C          -7.82528139346766    9.67500495659743   -5.09244050095403
C          -7.22236302545246   10.60244531645906   -5.89294440536324
C          -6.87555809785648   10.35268955700140   -7.24272444626185
C          -6.07206308833040   11.18346390758392   -8.00664960872727
O          -5.79285784452686   10.92001496610709   -9.32988221230558
C          -6.31989473039665    9.77068261794804   -9.83424036915565
C          -7.11866709433222    8.89869744693989   -9.04072466104731
C          -7.54087836887959    7.80559384354914   -9.72305726171733
S          -6.96882608862797    7.82584126419291  -11.34964464518864
C          -6.15243687988820    9.32322580397307  -11.10386435140449
O          -7.41183096912837    9.17771680147963   -7.74217333487552
C          -5.42681357116316   12.34741650813663   -7.50415143638155
C          -4.57369051016931   13.10617682084017   -8.23885914899003
C          -3.84202104374732   14.24746309824246   -7.77675138340407
C          -2.90860643283237   14.81947798116708   -8.62142526874068
C          -2.12032730059493   15.90483150128741   -8.19954018090679
C          -1.11261452559638   16.62587641896579   -8.83003079821530
C          -0.56457703117569   16.46336855102942  -10.20681675165999
C           0.20432803877610   15.13655434935156  -10.35082337294827
N           1.43695761192276   15.19682729952321   -9.58141572528208
C          -1.65393425817318   16.57653202162645  -11.28763425750770
N          -1.03367105881459   16.67636378044590  -12.59912471382546
C          -0.63547095459065   17.59421491218604   -7.87226965575497
C           0.35081732764091   18.50727044781731   -7.94883647640714
C           0.67277291136380   19.41004342192742   -6.80860880302328
C          -0.16860580446440   19.20221049824790   -5.59368322799303
C          -1.14081722228424   18.27610554211327   -5.52467244831611
C          -1.41484912202868   17.44371887024464   -6.63797867385569
C          -2.31155459081775   16.41905913271725   -6.84670109466232
C          -3.29642123144349   15.84014822631757   -6.01218098316502
C          -4.03173404824837   14.79555736151539   -6.46238551517386
C           0.62947080448009   20.83586563586180   -7.32649376497526
C          -0.32755807088126   21.69975573700853   -7.05161570236455
H          -5.70240198678789    2.50114203002587    1.48132135048420
H          -6.12876863648156    0.91951508887510    6.21555131906755
H          -4.19685540605396    0.16371583777388    1.10608803022971
H          -8.84958221652197    5.70659531189400    5.87142069604953
H          -9.98955314107726    7.27099887854568    6.59939935846307
H         -11.61388285678044   11.03304470237959    5.37408751844706
H         -10.72509838868981   10.72829377250665    3.09871968929295
H          -9.71877867272259   10.20992175992798    1.19190088337395
H          -8.47034073512721    7.73416383727314   -0.09917643545109
H          -8.99650608698953   11.79973414135770    0.27073559398399
H          -9.02631217007196   14.40127990211956   -3.11804060502357
H          -8.59137222546328   12.50774338804182   -4.62514149989697
H          -7.95218386459972    8.67393726715911   -5.48209192643553
H          -6.94823031144125   11.55699118335249   -5.48070717681441
H          -8.14888294149207    7.00011364651918   -9.36859826214915
H          -5.60315704693348    9.78259889805213  -11.89853988876104
H          -5.61207713160259   12.59313380449573   -6.47344376488510
H          -4.39205331121767   12.81236700072781   -9.26417866639223
H          -2.77162874439455   14.40406137411360   -9.60888473431743
H           0.15279173642293   17.27128734314847  -10.38913580456733
H           0.36326904188490   14.95857943700232  -11.42568862403341
H          -0.39711562314782   14.32006009012524   -9.94665422769505
H           2.08525813362768   15.84932335336864  -10.01048539894708
H           1.88494729385022   14.28788434091484   -9.56059025046186
H          -2.30134108837212   17.43559282745570  -11.04264388012512
H          -2.27511840537722   15.67965725814788  -11.28927524334399
H          -0.51726564215479   17.54666376084477  -12.67909146277759
H          -1.73985920897947   16.67007131238822  -13.32649888213749
H           0.94519876429885   18.63510568356458   -8.84331611878612
H           1.72181119053123   19.21759787169720   -6.52886498100436
H           0.05698343768489   19.84108127390877   -4.75296162308743
H          -1.71969440141950   18.14932656792674   -4.62114927245532
H          -3.44899074217966   16.23732210272075   -5.01914350069797
H          -4.78309171221815   14.36059272733502   -5.82244302455183
H           1.44431600392649   21.10416339117911   -7.98583428282059
H          -1.15427826180241   21.44950177178313   -6.40857928671956
H          -0.31705420715979   22.69724801209075   -7.45691776429925
