92
 SCF done       -178.777426748901          0.000656963831
C          -7.73992262891152   -1.92743608453295    1.59617172536744
C          -7.00879825439404   -2.05931797007618    2.74629730799186
C          -6.92669070815875   -3.24896257518295    3.49943885369252
N          -6.82160082281052   -4.19188140599242    4.14520451875338
C          -6.27863259740843   -1.01319055169036    3.34962610023952
N          -5.68659674666816   -0.20061640176114    3.90389338306564
C          -8.60217726566759   -2.94004962584670    1.00366096642207
C          -9.32103076332645   -2.35890099729232   -0.07055590802009
C         -10.22601763002538   -3.06787468795195   -0.82259780453938
C         -10.43268960511458   -4.41295657820145   -0.49933508209266
C          -9.70535571593109   -4.98624195497508    0.57169452217738
C          -8.78971817928437   -4.27043905978227    1.33186391023257
S         -10.10748242312368   -6.66189737867354    0.79324510777585
C         -11.23399971652343   -6.57083006285928   -0.53467887165497
C         -11.30598401740748   -5.34977002094958   -1.11625240756930
Br        -12.20699765355220   -8.09602147391106   -1.02813374191183
C          -8.92061517448401   -0.94544638390729   -0.23060333781710
O          -9.30626171657262   -0.17322844714300   -1.07950315017102
C          -7.87738334638455   -0.71621562442805    0.80653305262057
C          -7.07854304885866    0.37986901490212    0.84845113113392
C          -7.27283894618949    1.57549025262800    0.06981147822557
C          -6.21514832051109    2.02736823033032   -0.67581969653998
S          -6.59899192494294    3.29773218003024   -1.74870433888161
C          -8.22324001815926    3.33256423146258   -1.12728668452412
C          -8.46017276454235    2.37472896394718   -0.13171994979207
C          -9.70779137978388    2.37997386882929    0.53945537735709
C          -9.88103356984999    1.52874695594349    1.77061619249586
C          -8.95722842083463    1.99745754855139    2.89673907220456
C         -10.71855716527006    3.23916264914059    0.11810488314167
C         -12.09752908740525    3.17280889906829    0.72123855483548
C         -12.22383531731159    4.03745786687909    1.97858280206068
C         -10.47617604947370    4.19353602301622   -0.89988097282530
C         -11.32987265144973    5.21250418005502   -1.47529367088978
C         -10.68906447537631    5.90408323235490   -2.46359944589898
S          -9.06654863373228    5.42675990843029   -2.74852265927701
C          -9.21263066172124    4.21921355547314   -1.51175469883749
C         -12.66969279127021    5.59669419765032   -1.08200680591667
C         -13.57917260713932    6.09174823730581   -1.94252088620958
C         -14.87210412320669    6.55745055843703   -1.55667345268419
S         -15.87624674644640    7.37669398161003   -2.72047203767748
C         -17.14690971546547    7.64544348411376   -1.56785935043120
C         -16.81005506669629    7.07551124682448   -0.35231432346126
C         -15.52601388766450    6.48314574985011   -0.34137632843575
O         -15.03050854123753    5.90480873715430    0.77812944998482
O         -17.57265049031847    7.05087231715671    0.79128194084211
C         -18.70781038095370    6.19795136062694    0.73534031401461
C         -18.29281392199483    8.42622966691230   -1.88854696532700
S         -18.65104061652424    8.88444011317481   -3.53718161454594
C         -20.02844002265873    9.82016790837226   -3.05084306471719
C         -20.18818954552401    9.75333723712008   -1.66984071653918
C         -19.21231072194948    8.96467918565405   -1.02725871417937
N         -21.18041914755193   10.40165078994576   -0.88045134551514
O         -21.68397304111821   11.43267287227905   -1.27720821821649
O         -21.44497985030216    9.87676691882963    0.18435593751241
C         -20.81522192016249   10.44972503992845   -4.05537727104762
O         -21.97720069601971   11.07660126656101   -3.70984730947997
C         -22.46786076254248   11.59109132827081   -4.83839815298697
C         -23.54691717920220   12.36141543844037   -5.33218556732486
C         -24.67008134804572   12.96547210281713   -4.57697499923657
O         -25.60394783690976   13.52073475671859   -5.11393763311688
N         -24.54640950310096   12.82910915098321   -3.23931433513829
C         -23.29013322954817   12.44673085103453   -6.68168661533656
O         -22.15825020250900   11.81007651779451   -7.05341695585244
C         -21.64656156156767   11.28330935485115   -5.92436523124435
C         -20.56908803832861   10.54073867396493   -5.42160226163278
H         -10.75870931854251   -2.59828492643969   -1.63460529009473
H          -8.25406519796024   -4.75098052566741    2.13353393453441
H         -11.94674955806049   -5.11787163461733   -1.94724937522157
H          -6.15417667777744    0.33302239455603    1.41179065196783
H          -5.23168348954995    1.59741951426333   -0.70329528673955
H          -9.67683840531577    0.48172369409876    1.54736925784867
H         -10.90395336067497    1.57793006743934    2.13249043720381
H          -7.91006640023442    1.85941769089087    2.63902951991125
H          -9.15802592237279    1.43208737299796    3.80434130637155
H          -9.11918368317114    3.05317860746412    3.10255734487942
H         -12.35353958721648    2.13943295855548    0.95946750422002
H         -12.81839723886112    3.50360230747614   -0.02581978560972
H         -11.64569496719144    3.62053774186991    2.79913492543854
H         -13.26494126445967    4.10159761570665    2.28571038082157
H         -11.85553715706799    5.04363882894907    1.79269109972276
H         -11.08269410825363    6.73081075571186   -3.02184322034041
H         -12.92812452388022    5.54808575607312   -0.03833441483569
H         -13.36065917592518    6.16012073519611   -2.99935412283268
H         -15.68605245045016    6.04420912579429    1.47992808692880
H         -19.35925355351856    6.44817221143640   -0.10450448956341
H         -19.24259349568815    6.35137640638600    1.67015088497176
H         -18.40203410842553    5.14999098228258    0.65094598121640
H         -19.17683898749099    8.85652829452993    0.04109296713947
H         -23.73945470196127   12.41334020262425   -2.80386582684178
H         -25.25342939751842   13.23568597232221   -2.64993629502303
H         -23.85185144974993   12.94348913364729   -7.44761941696308
H         -19.72918092244778   10.12838939834853   -5.94073076519099
