88
 SCF done       -171.273904330666          0.000515885917
C         -11.19159164336374   -2.76383653737553   -9.29288537128264
C         -10.58760838364166   -3.78998004477500   -8.59424498955927
C         -10.02675091363753   -4.93005121764907   -9.20248839741786
N          -9.55664501391878   -5.88207185383463   -9.64153629679979
C         -10.43570183230039   -3.87224826976332   -7.20112200496582
N         -10.25682914045897   -4.03460258272777   -6.07549027551382
C         -11.32062984250496   -2.70845486981731  -10.74976234054577
C         -12.00428600379378   -1.51820081602158  -11.09684361404741
C         -12.27221230662494   -1.16708466442651  -12.39559302554948
C         -11.84258237380758   -2.03347348637921  -13.40800424848648
C         -11.16265398721678   -3.21993808762811  -13.05293988620334
C         -10.89298513537286   -3.57581547008484  -11.73579044942943
S         -10.71655403396762   -4.14507571141698  -14.45598448285919
C         -11.43922266460018   -2.93766312024130  -15.48492432890463
C         -11.98785009724408   -1.89654900468179  -14.81612711453627
Br        -11.40020605572222   -3.16461847935557  -17.34749094961699
C         -12.33738549561590   -0.77304567491055   -9.86224857677180
O         -12.93063187177546    0.28788532824497   -9.80467267058141
C         -11.79873474614495   -1.58021077359944   -8.75557966167918
C         -11.86061705721523   -1.21882992515126   -7.41962402632244
C         -12.44957991749076   -0.06591553503502   -6.92595235183482
C         -12.43466366815245    0.25802267283102   -5.57742043821050
C         -12.98250298668692    1.40164840915358   -4.96388302830595
C         -12.78326173397618    1.46096190160999   -3.60999419166905
C         -12.06986857634803    0.36423117599277   -3.09872064906877
S         -11.66529814714838   -0.75495043677968   -4.38024462106836
C         -11.66529710160142    0.10030661485961   -1.79648857839473
C         -11.84861140818192    0.86932264656723   -0.63070304201130
C         -11.28780682836189    0.31260346542842    0.48464648189757
C         -10.64107909572991   -0.92127763466074    0.25242315055183
S         -10.77547604028091   -1.35369394026176   -1.43962510982543
C          -9.98109085576917   -1.71524399726943    1.16545679450021
C          -9.38298672420995   -2.93516051797075    0.83364692661641
O          -9.46784975397605   -3.37424575130186   -0.46847418952697
C          -8.84061578072722   -4.55571076542247   -0.50695094697531
C          -8.51710411471726   -5.59735786176226   -1.38050464728318
C          -8.81517787691611   -5.73003498565786   -2.83078076404813
O          -8.48953643016351   -6.70877381185981   -3.47563242235622
N          -9.47185874500106   -4.67731812715100   -3.34543951747408
C          -7.82526517754162   -6.51901291893197   -0.56999755075400
O          -7.71913895336271   -6.07688301529843    0.72664417563510
C          -8.34005918793134   -4.88718482914939    0.76595101669088
C          -8.68232108654563   -3.85540841267865    1.62970929776511
C          -7.30104667478722   -7.77041254161004   -0.94619084897525
C          -6.63147451303194   -8.59072742519602   -0.08918226321235
C          -6.14474583707464   -9.87457476581667   -0.41332085078405
S          -5.24870723946775  -10.77480523793207    0.81241364026402
C          -5.08697682925442  -12.10788820189995   -0.25885560975042
N          -4.51382240877907  -13.28894058869565   -0.09853415544596
C          -4.64384522985963  -14.03213641750225   -1.17302634580439
S          -5.52782285763083  -13.23759811126563   -2.51319273930038
C          -5.70398328960170  -11.84918196062557   -1.50336927746817
C          -6.29067094991554  -10.59520931931935   -1.58981214378705
C          -4.14179513159560  -15.33492606283121   -1.25115060235689
C          -4.26929688509933  -16.22310987800512   -2.28869297934149
C          -3.75425494361285  -17.54741513430564   -2.29850980529857
C          -4.03309368707119  -18.24972366728909   -3.42710683338418
C          -4.78568497522947  -17.52232999523037   -4.38181383366085
S          -5.11448510786144  -15.90248791813231   -3.78644191688170
C          -5.23919969261712  -17.95051621786984   -5.60725980496161
C          -5.04596129994375  -19.23291028911478   -6.19819549791933
C          -5.61720802723501  -19.37599343884583   -7.41341593776366
C          -6.31189653945663  -18.21016941061425   -7.88207788394519
S          -6.17884881772927  -16.92654991859676   -6.66779494126991
C          -6.97225236054597  -18.05807264556489   -9.03754042507901
H         -12.79389916793503   -0.25143847995921  -12.62633879194444
H         -10.36896790709277   -4.49168018781845  -11.52078206062045
H         -12.47387895187391   -1.06512486279438  -15.29326442164728
H         -11.40304313373387   -1.88132620375252   -6.69432239843010
H         -12.93018829178867    0.61829144065440   -7.60955707665772
H         -13.50314083098829    2.14905243192294   -5.53563601997351
H         -13.12944508172311    2.26203366177431   -2.98150206415081
H         -12.37817817598267    1.80497393055211   -0.63912078793524
H         -11.32004358824565    0.75268888999973    1.46569939012755
H          -9.91820154581410   -1.39243319740261    2.19289546377611
H          -9.72002369395612   -3.88088660800182   -2.78501290432035
H          -9.70330274504474   -4.65165292352011   -4.33338003738697
H          -8.47742255524780   -3.75127956179148    2.67437779082276
H          -7.47802328943003   -8.03469616039208   -1.97791951586619
H          -6.45815581882348   -8.25405585004513    0.92437477922483
H          -6.80801945701967  -10.21998340533817   -2.45256889209527
H          -3.60767703262895  -15.66550371897508   -0.37075735759259
H          -3.19808926065091  -17.93149004359243   -1.46183443336603
H          -3.72508055118632  -19.26533293567974   -3.59885195642207
H          -4.48863379227398  -20.00260320048030   -5.69466108388041
H          -5.57988199984827  -20.26953232017600   -8.01089313094282
H          -7.02946845928171  -18.86352912827674   -9.74837823533007
H          -7.46063255325871  -17.13529140181929   -9.29180827024286
