89
 SCF done       -170.509960654705          0.000559747165
C          -7.99391389137838   -1.94240776802867   -4.61544731523326
C          -7.42517308323053   -2.84912196016745   -3.75719720766272
C          -7.37115649739907   -4.23819644807523   -3.99480909965439
N          -7.29269702097023   -5.37552549994864   -4.13177387185027
C          -6.81253895284150   -2.53620667718010   -2.52629968395107
N          -6.30102667704153   -2.36626376744842   -1.51182687384815
C          -8.65591312660817   -2.26558638661284   -5.87276183997375
C          -9.11195145364536   -1.06677120915934   -6.47383847610407
C          -9.78327881187899   -1.04650843253518   -7.67174648635685
C         -10.03035563506321   -2.26989814267061   -8.30334384220785
C          -9.57080628855444   -3.46308107617836   -7.69643676223793
C          -8.88274266330753   -3.48292399051164   -6.49017280620961
S          -9.97912303787448   -4.86062742128819   -8.64549622779229
C         -10.75361579070941   -3.83725763638403   -9.82595990836518
C         -10.70865280462705   -2.51699785704258   -9.52812937518195
Br        -11.54933427519126   -4.60820379451591  -11.33915975737960
C          -8.73334692383726    0.08262984456284   -5.62918985547402
O          -8.81252688674427    1.25214091921944   -5.93303330845439
C          -8.09843563230715   -0.50772166865573   -4.41862548228817
C          -7.61015060253500    0.21191129285474   -3.37518882078813
C          -7.92825957799769    1.58227424330388   -3.10748760964293
C          -6.99648154253944    2.45967464963338   -2.54914941587666
C          -7.25938168608352    3.82467667551518   -2.28037881397554
N          -6.18970620529497    4.49396393354491   -1.76203445968388
C          -5.16766737252719    3.74244913770824   -1.63452303416313
S          -5.35216501823174    2.08423466718011   -2.14019604817346
C          -8.52648623492659    4.38532758456327   -2.54838797126407
C          -9.47200001282932    3.48469393305811   -3.05244399086942
C          -9.21099700025515    2.12207410194100   -3.31594304362305
N         -10.29688866457939    1.40824792860776   -3.72105861762544
C         -11.33405484959078    2.14050571858300   -3.82096146033542
S         -11.13980609137175    3.82277160529726   -3.41355024089756
C          -8.88455565794498    5.75623172930287   -2.32994718429481
C          -8.10483573532655    6.70264722467100   -1.76849265090385
C          -8.56599180699993    8.04457613411249   -1.58377345071658
C          -7.90837612836629    9.04072562047408   -0.96902275070852
C          -6.55400867714998    8.92598766739466   -0.34821596189871
C          -8.52814950680123   10.42045916262364   -0.84278626356149
N          -9.44794032164440   10.76612272337704   -1.89303768941582
C         -10.74978658812605   10.39962804480192   -1.88869094807109
C         -11.55511775661624   10.43857872620310   -2.98354078011559
C         -12.91840835097980   10.09583264254531   -2.96087139221290
C         -13.74350244577595   10.13272085348349   -4.05399002451754
C         -15.11289856980806    9.77922134964748   -4.11332170262760
C         -15.68037244576006    9.92923510004020   -5.34167365932291
C         -14.79357559825391   10.41725015663881   -6.32917015087317
S         -13.20441900724474   10.66561399261297   -5.64688570134742
C         -15.06830860669541   10.69896955473690   -7.65277173811154
C         -16.29218476906966   10.55126926208732   -8.34096280980143
C         -16.24459236809659   10.94197660164242   -9.64370842045208
C         -14.97861529845511   11.42644188483412  -10.06292228976043
S         -13.84193264425786   11.34752780184423   -8.73026647293663
C         -14.67290390841954   11.90312448100411  -11.31008251583746
C         -13.43663236869521   12.40772166155603  -11.74838391532061
S         -11.97737915237068   12.50473493865999  -10.77525949924033
C         -11.03405691171352   13.21040891710330  -12.02999012683530
C         -11.78971293650292   13.37657961115177  -13.16631844675148
C         -13.13293737766217   12.92229952785174  -12.99773715160077
O         -13.85071022749632   13.10332138320612  -14.12775605145754
C         -12.98367020863891   13.66645746497609  -15.01203587264669
N         -13.46823740817672   13.97720585074965  -16.30124731231371
O         -12.67184948618444   14.48235793057846  -17.07302311246750
O         -14.62871297102645   13.72828926776505  -16.55275103887544
C         -11.72672981955949   13.85921844128671  -14.50156019190997
H         -10.11333106091621   -0.11548237938126   -8.10515919820666
H          -8.54995922460238   -4.41816974631106   -6.07234531054329
H         -11.13546184513143   -1.74784488972201  -10.14558420438268
H          -6.92198439302142   -0.24908892998319   -2.67723672052475
H          -4.22925362817332    4.08279051419127   -1.24204666414886
H         -12.29271606322066    1.77157885207129   -4.12939963941841
H          -9.88815788092686    6.01788025402169   -2.64652110345895
H          -7.11017739310877    6.43594959295061   -1.44985488670537
H          -9.55318532586529    8.24710742464837   -1.98354182548945
H          -6.26110927151520    7.89188455716751   -0.20368903120098
H          -6.54098266228735    9.43273816909686    0.61589759533165
H          -5.81085943057152    9.40829972888153   -0.98455333880181
H          -7.73034314859023   11.16959298126863   -0.82659112360721
H          -9.06093785579966   10.48390525451764    0.11349844126702
H          -9.03647558978544   10.92502643738403   -2.80227122225881
H         -11.14623235022592   10.11199410902582   -0.92385190053786
H         -11.13578583563027   10.73957473521247   -3.93479223802964
H         -13.34924701638887    9.77184223514774   -2.02230057951418
H         -15.63543477031750    9.42440688319531   -3.24204419802541
H         -16.70890527805227    9.70921175672998   -5.56452352641897
H         -17.17158202185802   10.16365020118805   -7.85853493420595
H         -17.07761240896910   10.90516989989782  -10.32306492321154
H         -15.46050739158883   11.90952054727145  -12.05189934028514
H         -10.00726351136496   13.45326246825789  -11.85511847274771
H         -10.89554527042391   14.28594713569122  -15.02325267113113
