98
 SCF done       -195.246663282710          0.000444183699
C         -10.41732939678684   -2.05528178644434    1.38701126540677
C          -9.53868828643914   -2.94329727345654    0.81987629676202
C          -9.63810285886750   -4.34345510711644    0.94840048784619
N          -9.67801617595192   -5.48881104747113    1.01599067518272
C          -8.40527487956212   -2.56892328825336    0.06881686960093
N          -7.45403635706548   -2.32820159330701   -0.52797837363250
C         -11.53352646578184   -2.39168065724464    2.26186846931954
C         -12.10559251645914   -1.18963956070035    2.74675639150778
C         -13.18242044319233   -1.17312802071519    3.59891940711400
C         -13.71965731326109   -2.40308788631974    3.99406532260884
C         -13.14267448197648   -3.59880655612396    3.50328457035857
C         -12.05335246883399   -3.61493406909157    2.64033144868319
S         -13.96738807133931   -5.00208229553650    4.11027327947150
C         -15.06015589031950   -3.97839916256420    5.00373162721884
C         -14.82113260228814   -2.65336254592575    4.85702349011526
Br        -16.41461214345417   -4.75525546749686    6.04193850396497
C         -11.37962331699541   -0.03351460862752    2.18519389408227
O         -11.65314262975070    1.13843756782125    2.34552962286132
C         -10.33916757864574   -0.61291288880950    1.30367087959541
C          -9.62305985870323    0.10031636219862    0.37602782591063
C          -9.40991524404320    1.49009511563479    0.38168544391603
S          -9.24709663230218    2.32913939843906   -1.12942242268723
C          -9.08591904345273    3.87471422521998   -0.37863874096281
C          -9.13251946548648    3.74954328714068    1.02342690473555
C          -9.27727286328741    2.39411959429383    1.45034728666654
C          -9.20034594473067    2.07430546374718    2.81764690679849
C          -9.11913452289100    3.08830014813982    3.72792424887542
F          -9.04087700323292    2.81043378526084    5.03536790981323
C          -9.11938070489868    4.43891003447621    3.31351613231664
F          -9.10056457970871    5.40635767679848    4.24126625127621
C          -9.10864119557775    4.77405898942089    1.98979355847522
C          -8.93711876580639    5.01275007698708   -1.21698817368698
C          -8.38856203487522    6.20317239117014   -0.87981760036871
C          -8.32091254181209    7.30305059751243   -1.78905566589855
C          -7.72678720074906    8.48303679472691   -1.52990949866854
C          -7.03513471290242    8.79462657141300   -0.23845645087916
C          -7.79436435652090    9.60854022205184   -2.53198644148501
N          -8.57453432977806   10.70491407268234   -1.99642442714707
C          -8.01721150481745   11.72985217893187   -1.31452829738564
C          -8.66724168069588   12.45383080206929   -0.36994893695942
C          -8.13220378669949   13.54914779636478    0.35170353982879
S          -8.75459863702482   13.86364512825360    1.93059830863691
C          -7.59980486173197   15.12761591892841    2.25085164809763
C          -6.78684079989854   15.33139972216191    1.11893933731335
C          -7.09352314842934   14.44771532107256    0.03859050816782
C          -6.41891058331796   14.59068084234957   -1.18777139164417
C          -5.43978857447581   15.53648123372466   -1.30180623555636
F          -4.79399931654157   15.68689175808333   -2.47140967246044
C          -5.09972606943285   16.37116280096424   -0.21607198225290
F          -4.12423959819162   17.27842508400052   -0.37388723637459
C          -5.76494281929726   16.28568353919825    0.97452414276140
C          -7.51652082772739   15.74050982827533    3.50497226718076
C          -8.29719870117983   15.39988897312145    4.57740440346687
C          -8.13227239905672   15.95479001987486    5.85106653317078
C          -8.74286326722053   15.55832137017681    7.01494228037608
C          -9.52500715278763   14.39201497790727    7.33636096470725
C          -9.45936789281960   13.15210399150037    6.74519206781571
C         -10.25071708648074   12.05378175484047    7.13592613896446
N         -10.88626496451859   11.13049215877534    7.38761182217528
C          -8.53437797505290   12.77148303432010    5.75285940846589
N          -7.78332197722542   12.36603325731115    4.98353074005471
C         -10.25266049223369   14.68416502153185    8.57123451241711
C          -9.76845627131547   15.90468021039583    9.10462985370027
C          -8.76161598593237   16.46984444393981    8.18036686879201
O          -8.11670055014252   17.48632645904924    8.32317168374336
C         -10.22425249793777   16.42461806739269   10.29057137357925
C         -11.21384071716706   15.71306006622246   10.97845745492437
C         -11.70198355167801   14.50476125294658   10.42952135638526
C         -11.23446237343019   13.97334116618937    9.23318156462219
S         -12.92904923550633   13.79504341533999   11.43523455313430
C         -12.76719758691106   15.11164669450072   12.56691772859891
C         -11.84495514172772   16.03660101813580   12.21130684424165
Br        -13.83341793128137   15.14078177115347   14.11036269861199
H         -13.59570029750100   -0.24127957038569    3.95162756309288
H         -11.65222580247809   -4.55072400738007    2.28832624972306
H         -15.39750056834316   -1.88284000354648    5.33557826553767
H          -9.23631837084772   -0.42873451985653   -0.48733199608903
H          -9.19265901189064    1.05119732272337    3.15279465890134
H          -9.10896602471183    5.81391251341197    1.71291336060145
H          -9.25703406502885    4.86843100272547   -2.24224311147130
H          -7.95908869349194    6.34330513215928    0.09845892007459
H          -8.79281296857951    7.15417875476420   -2.75210335362274
H          -6.24395517424828    8.07239600364112   -0.04431905179323
H          -7.73105683283959    8.75831086518589    0.59966207391998
H          -6.59290135083452    9.78688931363346   -0.26141987662919
H          -8.26036109386125    9.26746033591781   -3.46067747288729
H          -6.79158528420892    9.98068830223029   -2.75923856317172
H          -9.51818039486652   10.45695043148443   -1.72842994846173
H          -6.99200564133868   11.94648980439157   -1.57807190445442
H          -9.64571668525822   12.11820510274788   -0.05125803971618
H          -6.68367591513712   14.00001993159531   -2.04825886261867
H          -5.50472772505017   16.95525405110200    1.77738884627040
H          -6.74089742526547   16.48218213641696    3.64001735417515
H          -9.06922573635315   14.65796734926926    4.42893504370060
H          -7.50000192832568   16.83195813744667    5.94158442843073
H          -9.83038167746159   17.35112372721041   10.67794160889338
H         -11.64057993475224   13.05046570608038    8.85383245215961
H         -11.61718055964554   16.91156253808668   12.79231732943486
