114
 SCF done       -205.668896824041          0.000659172415
C           1.83328614050914    4.78298200583551   -4.38185528071821
C           3.11887020783481    5.25555856968249   -4.48943322044766
C           3.95027920267880    5.54178783756166   -3.38773675999079
N           4.67618423680522    5.79783958944444   -2.53521729169062
C           3.80446948999680    5.52153451422805   -5.69172877475704
N           4.43757223848780    5.76155243134691   -6.62048461837876
C           1.14608553834708    4.50700115718693   -3.12202204147139
C          -0.15035410918433    4.01592535692272   -3.41094150812231
C          -1.05038649607128    3.66978002373763   -2.43399645376258
C          -0.65250816675251    3.81756991359599   -1.10063483955401
C           0.64397924591845    4.30720779707320   -0.81976930471032
C           1.55506971924942    4.65522650741908   -1.81045511930345
S           0.92965587525314    4.41476741305849    0.89124561137402
C          -0.67594102671080    3.80981896914320    1.20048341704402
C          -1.39035224069569    3.53947314320864    0.08270802159839
Br         -1.25893459770395    3.59356360681100    2.97041473959155
C          -0.32881956654876    3.96347209593774   -4.87405501666844
O          -1.32471851626098    3.57590978902493   -5.46101882744427
C           0.91658710287616    4.46651380194910   -5.45558114002087
C           1.15827781990570    4.64064975130448   -6.79878498872398
C           0.33988297219730    4.40444880613079   -7.90744757412790
S          -1.29441110684319    3.74271788532009   -7.89551293691309
C          -1.38113394870897    3.90013662083051   -9.60901514169342
C          -0.19586999768606    4.44097198903094  -10.15327990513943
C           0.76472166572375    4.71366143395591   -9.20617443773420
S          -0.27181671077238    4.65182956697436  -11.88580651641671
C          -1.90101087981003    4.03198238227228  -11.87792789643849
C          -2.85369414686020    3.85500927095013  -12.86687806287845
C          -4.04627552804174    3.34072228692532  -12.36297982123915
S          -3.95645718488333    3.06000194627732  -10.63010686274332
C          -2.33793367805710    3.66457589980069  -10.59214570073645
C          -5.20968642126127    3.12737168450059  -13.11657534301545
C          -6.41222775136096    2.61697023717647  -12.69836539546499
C          -7.58583905183366    2.54880878448735  -13.49502525566263
C          -8.66861739539576    2.03658209890127  -12.85511141206752
C          -8.40963436753571    1.63334134901587  -11.52281749820845
S          -6.73488711612299    1.96330798295065  -11.10568785794414
C          -9.29372692855600    1.05055411941725  -10.64364080646826
C         -10.68933572723345    0.86101751475313  -10.84471328051860
C         -11.32405563841476    0.27128460296830   -9.80719682814886
C         -10.46634819099527   -0.09048601981699   -8.72026686364649
S          -8.81343229048884    0.43145223559363   -9.07983515093077
C         -10.82090314172837   -0.74796712349399   -7.59888987169496
C          -9.86892784439627   -1.21252107845543   -6.55093647113589
C          -9.38939274239447   -0.08612086626598   -5.61102480520268
C          -8.41713769434893   -0.66392847338494   -4.56293577307198
C          -7.53472935981931   -1.74872995062194   -5.10012869616989
C          -6.23358067322903   -1.58450162497887   -5.30799732621476
O          -8.08059166602568   -2.96296891917115   -5.43214062345065
C          -9.41971132716433   -3.31293777492745   -5.13781177462723
C         -10.50084022805838   -2.33806278319473   -5.72055183243138
C         -11.45507242263372   -1.75750369171592   -4.71500408753416
C         -11.50639521138870   -0.47889817192726   -4.37477500649854
C         -10.55733392327505    0.57191448933634   -4.86727345657176
C         -11.29597945627039    1.63513753794810   -5.68429108899742
C          -9.61411094239851   -3.66175865591285   -3.64947598437416
C         -10.61364872729911   -4.80230840071359   -3.45749935048309
C         -10.04405891763929   -6.18776044110111   -3.83778621090965
C          -9.61321120615410   -6.91368436275613   -2.62184204749336
C         -10.09115003031161   -8.04825414828780   -2.08514058506863
C         -11.17671389718176   -8.95324215223934   -2.45055965818664
C         -12.37894456153619   -8.63735394072713   -3.01726581138671
C         -13.40346653398622   -9.58130609723441   -3.25729623876520
N         -14.26834595068343  -10.29961816905053   -3.48561865443151
C         -12.82315769183304   -7.33981968043150   -3.35082723250665
N         -13.28702581744385   -6.32393687812927   -3.61553900633406
C         -10.84468114265471  -10.25966127003025   -1.89240204321276
C          -9.75817070033443  -10.11607599256706   -0.99252513392717
C          -9.29842014235911   -8.71637715967583   -1.00447146929277
O          -8.43404912466578   -8.20926270507759   -0.33157412895299
C          -9.24828677376331  -11.17159536292848   -0.27450155577002
C          -9.82841622076180  -12.42976916439489   -0.46158850776952
C         -10.90041309976479  -12.56736424337134   -1.37739972322660
C         -11.42104316787486  -11.50029097349305   -2.09727806677287
S         -11.45698735167881  -14.21023545861656   -1.46765695781746
C         -10.26405081544742  -14.68364005773597   -0.28696520895720
C          -9.48581481671967  -13.66560821884611    0.15184749239009
Br        -10.15729463076316  -16.47637192317179    0.25103942257859
H          -2.03065584087604    3.29902046102123   -2.68920437377806
H           2.53027896722926    5.02469845185780   -1.54181648066952
H          -2.39600549797303    3.16057055050671    0.08967068998565
H           2.12684819892732    5.04351931013361   -7.06841938457127
H           1.73461664409416    5.12807127859892   -9.41410986371064
H          -2.70936524487258    4.08912058623367  -13.90523620115183
H          -5.15245803080366    3.43437344777679  -14.15337245021535
H          -7.58708278724600    2.89669190582977  -14.51291243493648
H          -9.63657067589224    1.91814703444098  -13.30753173944680
H         -11.17521876994506    1.18269271670333  -11.74817452104131
H         -12.37707992280653    0.05408065222626   -9.77433651426504
H         -11.86358860929068   -1.00838070751056   -7.47497479079154
H          -8.98049902472949   -1.58954342327440   -7.07342078373625
H          -8.86198070611006    0.65867944270195   -6.21390692959212
H          -8.99688668489977   -1.05449343474929   -3.72560539865710
H          -7.78450356037556    0.13893768895475   -4.18411014908827
H          -5.75004541198411   -0.64988018327404   -5.10176734731255
H          -5.63013044672113   -2.38263886879952   -5.69915716533570
H          -9.50807335057995   -4.25188015416988   -5.70007771123712
H         -11.10739182152079   -2.94970380884987   -6.40003380836202
H         -12.17997478287150   -2.44725405956381   -4.30548107772276
H         -12.27040009191580   -0.13429606474929   -3.69089108552896
H         -10.14157866247437    1.08621184299831   -3.99019937622058
H         -11.79042635992015    1.19430000265940   -6.54501323846630
H         -10.59745974355761    2.39090359830563   -6.03610598252322
H         -12.04868946388779    2.12088059528493   -5.06692314814966
H          -8.64210889480439   -3.94880381772628   -3.24165938445103
H          -9.96670686662660   -2.79285930453644   -3.09232992524665
H         -11.50289955272016   -4.61664100077028   -4.05791783693000
H         -10.93377341245316   -4.82432633592297   -2.41423658594531
H          -9.16867424478920   -6.04772660670289   -4.47717555581093
H         -10.78131833304194   -6.76225476938133   -4.39688458601405
H          -8.76312783618121   -6.48441429444428   -2.10063458065270
H          -8.42590805276910  -11.03008209756747    0.40895853501723
H         -12.23114697472762  -11.65736654425783   -2.78977771424548
H          -8.70161892035181  -13.77985718282839    0.87767027966911
