91
 SCF done       -160.808414329810          0.000592915400
C          -6.26292182213228    6.67208035253606   -0.95915183558877
C          -5.72285601250213    5.72694058072389   -1.81519691600617
C          -4.87679862042497    6.07450870453961   -2.87143539772820
N          -4.26795207449560    6.35672840412621   -3.80920241915547
C          -6.09995122402767    4.37511924707551   -1.84360512467171
N          -6.38343452997285    3.26221171897375   -1.91086803227585
C          -5.92760713400438    8.08200899046349   -0.95092166595210
C          -6.88359670705724    8.77441647656467   -0.16411010287686
C          -6.85728640546473   10.13627142982869    0.00348282799938
C          -5.84162051137021   10.85492770631518   -0.63998528194025
C          -4.87193172756370   10.15152480950627   -1.39324737353162
C          -4.89378640765557    8.77352204889723   -1.55728188526478
S          -3.69307336413692   11.22620135818390   -2.08029538557932
C          -4.52367793825847   12.58947288989957   -1.38333114655474
C          -5.61755368795310   12.25811012555263   -0.65642397340043
Br         -3.86555480855527   14.31957739478361   -1.68350518309747
C          -7.85335865982795    7.80288927800788    0.37977507589907
O          -8.77716303233844    8.04038419345883    1.13391919771222
C          -7.40897581220743    6.48380797570333   -0.10859615185629
C          -7.96544984951245    5.28471460528274    0.25847281818758
N          -9.22542591673539    5.09673474514011    0.71005736555650
C         -10.32575448264120    5.90359111038652    0.58688409380722
S         -11.51597116045007    5.76558611767185    1.84976700187987
C         -12.47276430449109    6.98490197495490    1.08239558039450
N         -13.68702490775185    7.34554957222095    1.67410365551054
O         -14.35000987596610    8.20884403037405    1.12598537303115
O         -13.99561000825415    6.76124051706905    2.70038900225131
C         -11.90475834911975    7.45987135267826   -0.06723854254957
C         -10.68316134032050    6.83527898230513   -0.39462056412897
C         -10.00658603162330    7.18811709987735   -1.62081206698468
C          -9.14534819250099    6.42701411041799   -2.31951517136656
C          -8.43494102340863    6.78969754041869   -3.52477913257558
C          -8.02462324922101    7.99839848128813   -3.93656657817905
C          -8.22962462524539    9.28200738692894   -3.20051350757574
C          -7.26775803237120    8.13343297622897   -5.24298003381280
N          -5.88061368204897    8.49384703431448   -5.05573907855517
C          -5.36071007709511    9.72908297746718   -5.08373676383776
C          -6.02849040390049   10.90239452041003   -5.31105950377735
C          -5.46084749014584   12.18732924390560   -5.33282124087795
C          -4.14703091132750   12.59549569809666   -5.28203972687124
C          -3.73235626806773   13.94625522030903   -5.22604117300140
C          -2.38118195303379   14.12843520060662   -5.17998648360055
C          -1.64423475380745   12.92930451969834   -5.20885039842031
S          -2.72346128010667   11.55891069206536   -5.30104791587746
C          -0.26676510260922   12.77495312424004   -5.17488621799512
C           0.71341553841489   13.77961513896343   -5.09941769861531
C           1.99332984180289   13.30055343784037   -5.09775617539070
C           2.09546176398840   11.89499651888903   -5.17213687246577
S           0.49043578407151   11.19720982894190   -5.23663223534595
C           3.28345540388442   11.18765226660325   -5.19910003881759
C           3.48681168537429    9.81150363796775   -5.27726119760438
C           2.55642354559891    8.77445207983505   -5.33689145223417
C           3.24192325935709    7.55907778974424   -5.40587266163524
C           4.61481121372526    7.78287774350398   -5.39256603863015
C           4.89022601989172    9.23558287245024   -5.30963806550139
N           5.35142893542762    6.65183307803592   -5.45649076756270
C           4.50895684612262    5.64627913945186   -5.51333679957891
C           3.05109367369464    6.08884291508755   -5.48948685931051
C           4.90742601419980    4.27559994501324   -5.58952721584915
C           6.18291972536028    3.87763372653034   -5.61222173267615
H          -7.60303219542869   10.63687248072281    0.60101193351219
H          -4.12309216381335    8.28344073041358   -2.12808788427683
H          -6.24257917554513   12.97335841993961   -0.15370729332437
H          -7.38640385637615    4.37380438595678    0.17779952615759
H          -9.38042438603973    4.26513600058898    1.26831015340889
H         -12.37095602178840    8.22064829405956   -0.66732587020191
H         -10.30545422431035    8.14863327446833   -2.01302914242383
H          -8.98571672637976    5.40086304935326   -2.01384893856015
H          -8.16225601979134    5.93713359188815   -4.13694237693483
H          -8.43970349623003    9.11039191411610   -2.15003573960623
H          -9.06469020262948    9.83424655348179   -3.63367968998563
H          -7.34109542144774    9.90600106064963   -3.27861838605003
H          -7.74861195241056    8.89581638153929   -5.86185041537135
H          -7.29517070900098    7.18417364733101   -5.78485399157622
H          -5.26170454337727    7.73557313095305   -4.78280874043864
H          -4.29718159362055    9.75444243515247   -4.89537029903673
H          -7.09826866821018   10.87598080719014   -5.46041546247762
H          -6.17147886498802   13.00349056991532   -5.39635451387964
H          -4.44833592783196   14.74923932276700   -5.20715722025284
H          -1.90443295347008   15.08981907243091   -5.12316462427323
H           0.45904664103635   14.82291639640536   -5.04839645174964
H           2.87038902734010   13.92176009652990   -5.04665420839094
H           4.17672115209493   11.80016077027153   -5.15727544891666
H           1.48861268427761    8.88784728243033   -5.32965134688034
H           5.45372799507255    9.59916586281679   -6.17070666016234
H           5.45541750849571    9.50003232051637   -4.41428060174234
H           2.52484759586997    5.67078152375651   -4.62991660439778
H           2.52662908015193    5.77093612058526   -6.39197355843878
H           4.10268350775535    3.55236123005719   -5.62931511408126
H           6.97674746867343    4.60266374948980   -5.57313751019024
H           6.45437094435093    2.83815688749248   -5.67005772561774
