83
 SCF done       -154.112557788309          0.000448214992
C         -13.72669319065452   11.39992941594801    0.26026416465149
C         -14.66765727081355   11.13298743805940    1.22277119935032
C         -15.35233985382235   12.12132470994250    1.95742996027645
N         -15.93899115676359   12.88406552733517    2.58374246350315
C         -15.06845994502733    9.83386614205964    1.59312266581246
N         -15.42275289940319    8.79233383227757    1.92201095641885
C         -13.28462588528434   12.72640986844125   -0.15931374994248
C         -12.31090178229184   12.58586659213596   -1.18303889102899
C         -11.70166984748936   13.66362378833938   -1.77908855799120
C         -12.06826099893337   14.94235645685500   -1.34657284707117
C         -13.03999581954435   15.07334356862959   -0.32610704005832
C         -13.65696111408635   13.98305310754918    0.27701301289525
S         -13.34217049865107   16.73936041516998    0.05849784011714
C         -12.17557804853625   17.23229446484289   -1.14022407753452
C         -11.58854092203434   16.20259093490355   -1.79587996663866
Br        -11.83964287058664   19.05737946353651   -1.41215387547631
C         -12.10432275561034   11.15809053678724   -1.44420727034186
O         -11.33770739372761   10.65271458540000   -2.26413139619976
C         -12.99098225765170   10.43916972111140   -0.52840898274325
C         -13.03056661151577    9.06459095219234   -0.49454368398360
N         -12.25031889393865    8.35999706047439   -1.32081636579563
C         -12.13814195559573    7.01230551748312   -1.41720993697228
S         -13.04453131764964    5.93912949039649   -0.39822026242611
C         -12.27487955820844    4.59512425882289   -1.17777008586336
N         -12.62855678358313    3.30603145872204   -0.75837277950410
O         -12.08672110928710    2.36570254088927   -1.30949300710052
O         -13.45779769205637    3.22734119844976    0.13093231734086
C         -11.38300409671936    4.95565491836333   -2.15222703986794
C         -11.28741370771304    6.35062496918614   -2.31405889146444
C         -10.45702611811642    7.04707400993567   -3.26384454203068
C          -9.58163228960636    6.46401659067111   -4.10095351565995
C          -8.77432997159865    7.15016687186231   -5.07976172558662
C          -8.30046903516316    8.40428905968841   -5.04324919688991
C          -8.42362346308948    9.34973202203091   -3.89201150806727
C          -7.51256972194384    8.93672630711092   -6.21901320101270
N          -6.13479498091470    9.19382541262592   -5.86800131095045
C          -5.54846052535863   10.39177610932082   -5.68746744974796
C          -6.10697809185271   11.62054879372562   -5.89522496687111
C          -5.45749245549428   12.86065175341961   -5.75328810188544
C          -4.17168751670573   13.16978892525235   -5.37651070215635
C          -3.65419316032545   14.48581411754774   -5.30465289846828
C          -2.35148084379705   14.56907790101464   -4.91157071911804
C          -1.75659954778764   13.32019523819781   -4.64046752081230
S          -2.90763520271435   12.03547726412070   -4.90946158462646
C          -0.46352625344826   13.06245741159232   -4.21474306880773
C           0.56798087164513   13.98705066844298   -3.97019805830848
C           1.73459436314748   13.41298175451136   -3.54842343924492
C           1.68316550770514   12.00844652101000   -3.43626422645043
S           0.09522239734166   11.43245652722067   -3.89424956225488
C           2.70474656269473   11.17130517575308   -3.02494159929461
C           2.58228849602151    9.79005088036398   -2.92731432718141
C           3.56528318085707    8.91707680017321   -2.51595652208382
S           3.26370514339080    7.19206706631438   -2.43853167383614
C           4.94936636253168    6.86009814070389   -1.84829448244190
O           5.33890301576579    5.74855367681458   -1.60542267854991
C           5.62989837051503    8.12656531989244   -1.75375548887529
C           4.89494463869255    9.20619256817723   -2.10716691880942
H         -10.96381550794512   13.52705344786949   -2.55412579916939
H         -14.39032597118507   14.13494267329412    1.05105927154879
H         -10.84734634804150   16.32627881254962   -2.56411883766397
H         -13.67078014550543    8.51429283443367    0.18205385520972
H         -11.66451994436555    8.95281797879524   -1.93635327022545
H         -10.83714898694376    4.22517539789206   -2.71975884180152
H         -10.59360951609441    8.11481516070028   -3.32269884345606
H          -9.48302758580984    5.38688286389191   -4.10438523734020
H          -8.52553015860641    6.54372676639840   -5.94319821046331
H          -9.32700634783250    9.95457798717317   -3.97382884735195
H          -7.57457901324364   10.03071934631287   -3.87295467379146
H          -8.46277783590791    8.81126764119559   -2.94769721404165
H          -7.96554750629725    9.86570431114522   -6.56810461495417
H          -7.53255734142754    8.21585019486386   -7.04292882883156
H          -5.60460489074963    8.37707924208059   -5.60735478945986
H          -4.51900375193475   10.32583313844073   -5.36881951977523
H          -7.13955834869957   11.68341836580893   -6.20745657982426
H          -6.06715058433611   13.72637163613673   -5.98424332700155
H          -4.26442264400576   15.33749291288095   -5.55060681139854
H          -1.80906883954412   15.49130172766981   -4.80799619606409
H           0.43183669630892   15.04455782213642   -4.10941253231045
H           2.62933634237309   13.96200525923396   -3.31342089750128
H           3.64121538894228   11.64504878677542   -2.76682611936588
H           1.62613287000587    9.35868216717296   -3.19678374335111
H           6.65180967207081    8.14784739744431   -1.41852970152024
H           5.26868680366757   10.21524030581744   -2.08725457244190
