92
 SCF done       -192.285541757949          0.000783085185
C          -4.19701600895395    0.71867697632676    4.69008341694594
C          -3.14460938897547    0.63651196221972    5.56882468406699
C          -2.93931122855345   -0.43831807519369    6.45834577669315
N          -2.71554387608864   -1.28146059960273    7.20481249113659
C          -2.12244484267011    1.59519363303494    5.71866084874923
N          -1.25602692970766    2.32984127504478    5.89421037614555
C          -5.24977906859844   -0.28403758704159    4.54614352140895
C          -6.15579881151740    0.15019696939309    3.54720088377880
C          -7.25957345666743   -0.57767583414406    3.17691297723993
C          -7.48254381780593   -1.79764517851741    3.82469151791211
C          -6.57356667191427   -2.22450830173654    4.82120821128844
C          -5.45650175747943   -1.48618300093740    5.19512244058123
S          -7.03594213646463   -3.75837565930265    5.49312859266727
C          -8.42504803027909   -3.80502175977865    4.44061788430877
C          -8.53883584801247   -2.72820704666395    3.62704692305283
Br         -9.59354766536287   -5.27019935766055    4.51378204788926
C          -5.70430728893793    1.45096491328306    3.02373932722413
O          -6.25358441273918    2.10802188105607    2.15330138543589
C          -4.48015185528861    1.78340621735810    3.75077760945177
C          -3.71668221187271    2.91654156635108    3.57185956390102
C          -3.88595311832089    4.00169356371686    2.71569488434967
S          -5.19122544244928    4.23194055469366    1.58697363126561
C          -4.57318165921208    5.74459413121533    1.04461846241764
C          -3.37694457060639    6.08682119677787    1.71201202863183
C          -2.98573377902477    5.10094586555278    2.65939297142278
C          -1.81623210565726    5.28503408502072    3.41377041797305
C          -1.07423880328534    6.41967979357328    3.21688082653712
F           0.04416613784053    6.61493208291803    3.92546103759228
C          -1.46319930197848    7.39598380022807    2.27758085499527
F          -0.70456425330761    8.49144637072421    2.11855707020847
C          -2.59782392099892    7.24143240959245    1.53053080652776
C          -5.23133308229658    6.52076489570523    0.05617176075706
C          -6.36630205174757    6.12401253089640   -0.56749057617281
C          -7.11822839485843    6.83890201104370   -1.55607933055559
C          -7.20058390436694    8.16628824207482   -1.76236772639248
C          -6.55365206406970    9.21475382762401   -0.91865725321295
C          -8.10719785890906    8.69124452098953   -2.85194662237622
N          -9.28869547038414    9.30316450006743   -2.28228641528447
C          -9.37643830523820   10.63160283646350   -2.03724884052828
C         -10.16102203301322   11.17386438980276   -1.08603853471519
C         -10.33200216176282   12.58326200393610   -0.84182287863420
C         -10.40438727711626   13.09146604513850    0.44094670131750
C         -10.21749899194341   12.30202892907188    1.68570177764883
F         -11.18389617523465   11.39193690571022    1.89363618293761
F          -9.06184217399488   11.59991858599051    1.66627602309685
F         -10.17299333545231   13.07136919085610    2.77885363408350
S         -10.64408942232267   14.79163663268737    0.52549700516162
C         -10.69451860036610   14.86199313676579   -1.19685003685854
C         -10.83918702778555   16.08635403445685   -1.85232969582873
N         -10.96480261610792   17.08561804745926   -2.40440548665479
C         -10.52522207174642   13.62423793520773   -1.80504253666062
C         -10.57551247978171   13.45257612583069   -3.23235102289776
C         -11.36788980171802   14.09789091435180   -4.11426593881956
C         -12.51973718345313   14.97157824504363   -3.95508968551776
C         -13.45918091938402   14.90095103421643   -2.96467269260927
C         -14.62293420467483   15.69841679728679   -2.92985124117482
N         -15.58257072350812   16.32228869990152   -2.85723868636512
C         -13.40902410002382   13.96613598886240   -1.91045211841494
N         -13.42273008363215   13.19476028121179   -1.06083752651459
C         -12.62575320399610   15.75795019497588   -5.17407924664609
C         -11.75355370609989   15.21181218677542   -6.15214537958840
C         -11.00559971188956   14.08723924127508   -5.56615640424212
O         -10.22163131493532   13.34036289268889   -6.10161966790717
C         -11.66173380769444   15.72692358878253   -7.42351472495824
C         -12.45512792090188   16.83486097841803   -7.73750550276562
C         -13.30740273567987   17.38305721700844   -6.74623828908794
C         -13.40846157745445   16.85886846265335   -5.46419086917481
S         -14.18312985878061   18.75640925063237   -7.34496030213708
C         -13.41216778649690   18.57695600510094   -8.89867151465876
C         -12.53920573614046   17.54307710035464   -8.96684527401599
Br        -13.83008257955420   19.76952920206708  -10.28217909190840
H          -7.93042714992899   -0.21872103584241    2.41227144725139
H          -4.79566582970962   -1.85700638402775    5.96034009971366
H          -9.33408644299903   -2.59449375973205    2.91666350862185
H          -2.83532423993121    2.99203040959753    4.19247691033882
H          -1.47969453754146    4.56674217714122    4.14455107511368
H          -2.87230033058549    8.00334581219477    0.81999608318277
H          -4.75875346573305    7.45130277969029   -0.21482287765433
H          -6.74738301099227    5.13813852138503   -0.32810114348445
H          -7.72338195640235    6.20173496429148   -2.19085179077201
H          -6.42286453287349    8.87159932580068    0.10480376520290
H          -7.16175527695337   10.11831969183778   -0.90405813306273
H          -5.57683665780063    9.48137398109965   -1.32407392688477
H          -8.41996352863294    7.87839796444418   -3.51394590782548
H          -7.58566712711646    9.44481954073790   -3.44798906969531
H          -9.80886733331467    8.70608021754391   -1.65295698386435
H          -8.76580314844149   11.24588582684940   -2.68551537906777
H         -10.66963831490648   10.51516618257731   -0.39637261821073
H          -9.85959960016095   12.77125623210598   -3.67459958985327
H         -10.99724460871176   15.29090009109609   -8.15284446859155
H         -14.05830642731536   17.31264550906102   -4.73453731679247
H         -11.97689790057560   17.29002149510531   -9.84700912729630
