93
 SCF done       -194.184833451509          0.000352620041
C          -7.96878199244086    8.66906429532842    3.41939166953792
C          -9.09658288344799    9.33759953844569    2.99083440569847
C          -9.61393955614674   10.50736304154653    3.57807123718148
N         -10.11075708159467   11.45341217127209    4.00032449190372
C          -9.88650842000273    8.95800253063341    1.89541777015448
N         -10.57319130293415    8.71138879205200    1.00493751494342
C          -7.08205405675328    9.12156924794297    4.48272041886917
C          -5.99376695849234    8.22124408111201    4.57392014764106
C          -4.98092051135508    8.37815148915089    5.48607495813254
C          -5.04105621275698    9.48222755043855    6.34554233008484
C          -6.13139627828576   10.37789127017112    6.24394104229112
C          -7.15933535059029   10.21613875986344    5.32275397292111
S          -6.00970605147749   11.66783990002925    7.40186858588346
C          -4.51573422383056   10.99613712105465    7.99817756189240
C          -4.12634960135721    9.86422130013454    7.36413417386142
Br         -3.61166953938137   11.85123623645539    9.40124796994290
C          -6.16715102157828    7.13303917502315    3.58249826657222
O          -5.47006753846945    6.14794245080197    3.48626659977237
C          -7.41936691202537    7.46001710561649    2.85827916861394
C          -8.06848788332905    6.69574146405854    1.91179831061271
C          -7.55399723670301    5.66070996150306    1.11290566438362
C          -8.37941811409394    4.84288635256530    0.32762081132799
O          -7.86428020845222    3.87153925860214   -0.48421886074235
C          -6.51155380604507    3.68617760499089   -0.42814712208995
C          -5.67988179229965    4.51686047468275    0.37350963457411
C          -4.37009377897865    4.17203071766259    0.30668405367147
S          -4.13672914558447    2.82613086374171   -0.74443850701171
C          -5.81990373126627    2.72641425555429   -1.09298868946407
O          -6.19161265315050    5.54638410409346    1.09537780066469
C          -9.79466555915865    4.90491274599120    0.32480716116042
C         -10.56062869630403    3.99617163839928   -0.35191602410648
C         -11.97061452200873    3.90518494354597   -0.37020651421064
C         -12.87363067973157    4.89941488718058   -0.02228968049392
O         -14.21463944487253    4.64654333104055    0.14852589028367
C         -14.61474784662222    3.35988730305126   -0.08055755532538
C         -13.71272076816769    2.37739579027121   -0.57782256046396
C         -14.30823116022842    1.17638986077838   -0.78511367904206
S         -15.97892499668790    1.22915610960425   -0.36305722583217
C         -15.87381141395203    2.88486965729366    0.09280780621898
O         -12.39137843216457    2.64899543512847   -0.77204375434839
C         -12.55129745105630    6.28117971945677    0.05133406881739
C         -13.38415007126440    7.21437478435085    0.58348592202658
C         -13.20362533427611    8.63051470547915    0.45477090082630
C         -12.76361668484040    9.27560595943249   -0.68982440573096
O         -12.40830898226676   10.60229302676339   -0.68573009538932
C         -12.55844606308762   11.25311865494860    0.50249122842882
C         -13.13870000537536   10.61726128867373    1.63623381356414
C         -13.24046166216943   11.44048178200264    2.71006981880929
S         -12.62896762167148   13.00669306612222    2.35148273039903
C         -12.22924269356858   12.54743241493183    0.74018626541315
O         -13.50329949702590    9.29999336593199    1.60775398695975
C         -12.66158952190994    8.69612048259249   -1.98419186579668
C         -13.35624747352390    7.60541911263297   -2.41716853319172
C         -13.14538212139310    6.95005402706089   -3.63651299524180
C         -13.78077390133384    5.79484475762990   -4.02440825213021
C         -14.93359461705345    5.12842313880047   -3.47413938651692
C         -15.99284500830653    5.71012108009782   -2.81748528343455
C         -17.07265042653805    4.99008326754288   -2.27439695600594
N         -17.95417038787010    4.44996009492791   -1.77283508468906
C         -16.18113704609426    7.10104195617263   -2.67833000231890
N         -16.42375107982039    8.21867697392913   -2.57639901932928
C         -14.87216287803928    3.73116913740976   -3.89690696900548
C         -13.81097273604076    3.58317630151793   -4.82499761007954
C         -13.13574737395223    4.88788449420650   -5.00224370924230
O         -12.21321375289599    5.14651523295850   -5.74315800725276
C         -13.51087667064754    2.38083409410045   -5.41556341664452
C         -14.28890860154707    1.26975590966553   -5.06910999678585
C         -15.34913474193587    1.42973810985682   -4.14717361166848
C         -15.66037775190562    2.64940635947619   -3.55799900660284
S         -16.18260656558543   -0.06699202742637   -3.86055265613032
C         -15.10860164327622   -0.87860928163372   -4.96977484329821
C         -14.17504294813956   -0.07160335131039   -5.52733493048087
Br        -15.31957733357598   -2.71602067694843   -5.28210814841912
H          -4.16507344931646    7.67429737187970    5.53634433431897
H          -7.97288384223999   10.92155972875370    5.28629846963857
H          -3.23172653525596    9.31959726162453    7.60494342387722
H          -9.09946454074007    6.94501414565122    1.72827394749538
H          -3.54615699104532    4.62772050611637    0.81369363657272
H          -6.19898370871437    1.98049986534905   -1.75971196847784
H         -10.27213782879363    5.65911932170844    0.92390800787340
H         -10.06323634641249    3.17242997856447   -0.84599813941178
H         -13.86165771736698    0.27511148886417   -1.14931529424134
H         -16.73973959837128    3.41173602273240    0.43566289235126
H         -11.64967838311788    6.59997919259501   -0.44828438333913
H         -14.18493112343936    6.90422264424028    1.24184940009119
H         -13.63101782962249   11.21479558759694    3.68006629552136
H         -11.78522311222458   13.24788205986175    0.06433386622545
H         -12.05316174742404    9.25606277538637   -2.68227313757532
H         -14.06343120157764    7.15821940170019   -1.73636970834033
H         -12.32370407052613    7.27245849830144   -4.26513674642287
H         -12.70249454490953    2.29788852240230   -6.12495994589862
H         -16.48354771425830    2.72300901603650   -2.86733235847194
H         -13.43635170355668   -0.40594416763504   -6.23271578723006
