94
 SCF done       -174.778223514833          0.002965005681
C         -14.16076502163038    5.34359939549684   -6.04032557900436
C         -14.87196311468046    4.20327256289259   -5.77321788959399
C         -16.23511908668962    4.02683435704864   -6.08087413929857
N         -17.33935947655571    3.82117519874753   -6.31712196945389
C         -14.33323530434308    3.07076850813311   -5.13121965060441
N         -13.94690453914573    2.13045272917598   -4.59697969566103
C         -14.69130936039069    6.56079056512640   -6.64772139960045
C         -13.64723383094848    7.51623841023129   -6.75319933360474
C         -13.84338803661121    8.77405366274452   -7.26902530167943
C         -15.12898009496963    9.10530965619234   -7.71076188532179
C         -16.16306542850498    8.14578104455256   -7.60460724755029
C         -15.96646083710296    6.87510530641409   -7.07434874111425
S         -17.66880718147948    8.76054838316789   -8.21546677324477
C         -16.89864097781401   10.27637314593105   -8.60265454592547
C         -15.58211338164740   10.32293969641086   -8.28846966647144
Br        -17.90194846577954   11.65280252637390   -9.38948482414353
C         -12.40955197149930    6.92508636204472   -6.22869351943953
O         -11.30382085336328    7.44974829336258   -6.15383059126069
C         -12.76024339975502    5.57566896285341   -5.78142267712447
C         -11.84164556399780    4.76020754316542   -5.16940689100508
N         -10.56620729145103    5.14032200821865   -5.04573771180843
C          -9.58592290703917    4.45898782880295   -4.39846094416352
S          -9.92730521383263    2.97854913004194   -3.55868141594695
C          -8.25933625047523    2.86955000823908   -3.10496902467344
N          -7.87889436912829    1.82882416582210   -2.25414100920593
O          -6.70975169981646    1.77017671549103   -1.91376879522588
O          -8.75522846190053    1.05568639604114   -1.90286121696714
C          -7.49159633176955    3.88412224103278   -3.61162571745352
C          -8.23788592574711    4.81667837502118   -4.35429427322471
C          -7.59911043587664    5.97312205591463   -4.94527433787324
C          -8.07661707751972    7.21803383328644   -5.06780533251525
C          -7.18902566418058    8.28264258701948   -5.50180413483091
N          -6.12820098622916    7.98774772842856   -6.29488525659876
C          -5.30771122258252    8.97106190139940   -6.39127008476017
C          -3.95114460440960    9.16269216987275   -6.35148359874309
C          -7.22586920924001    9.53760028780922   -4.94090745361811
S          -6.05930714402512   10.60517102049450   -5.72138379228434
N          -4.62434595684144   10.94693554717739   -4.95787577501492
C          -3.63921901617103   10.22495873008617   -5.47012649944894
C          -2.31844950790391   10.28164936614241   -4.87108560968843
C          -2.25411728835130   10.07956493435128   -3.53843557260464
C          -1.12668259837922    9.67398155843085   -2.77433903394908
C          -1.30994619001657    8.79978769751772   -1.73628529175739
C          -0.35469113166274    8.13287478204193   -0.92445914470330
C          -0.87540117107028    7.15186058368441   -0.13291278451555
C          -2.27045001375468    6.98238428899034   -0.27062037929321
S          -2.91629964996517    8.17195819959298   -1.37950210100679
C          -3.11538013977854    6.01221271297641    0.23608483183384
C          -2.84929238177028    4.89058059095169    1.05046095406150
C          -3.93361503059510    4.08959430575571    1.25315027892560
C          -5.12678217964112    4.52780085164209    0.62169091548567
S          -4.79834330794055    6.02612956731837   -0.23341844205189
C          -6.34067963365718    3.89022979343735    0.65649331054625
C          -7.55762757802486    4.29376398370742    0.06479266820056
C          -8.76238881596767    3.58549274438190    0.15858063732617
C          -9.77004976480186    4.29580670360994   -0.54099430683827
C         -11.10407887090339    4.03247204599775   -0.76451736536921
C         -11.83719250652190    4.96553425191525   -1.52022699048678
C         -13.17025364639961    4.99779738221624   -1.90272053883582
C         -13.41142209695360    6.19570488151840   -2.64873310005142
C         -12.22180331579268    6.89545663272654   -2.73571739344178
C         -11.20750302628000    6.16591861450552   -2.04427642066899
C          -9.87946829824852    6.42507673130455   -1.83525285691858
C          -9.14314461025738    5.48896602052614   -1.08250062161096
C          -7.81214891837679    5.47306072565728   -0.71599895247489
C         -14.66397359557767    6.63131405376095   -3.21616121022150
C         -15.81796977350141    5.97236925859466   -3.15089780404900
H         -13.03210325156342    9.48141337612411   -7.33385625599950
H         -16.78711308342031    6.18070183812299   -7.01122971320508
H         -14.95495054814048   11.17909814874858   -8.45814212092484
H         -12.10909544989852    3.79421653626055   -4.76091987823708
H         -10.34572903119603    6.06043267814856   -5.45858677557510
H          -6.43608632692100    3.96307348517547   -3.42574401281868
H          -6.56852357383412    5.81135477100613   -5.23493819782800
H          -9.05796281022059    7.51796338048740   -4.73189642061679
H          -3.22739405796130    8.45490901884197   -6.70624185414810
H          -8.04886435421736    9.96191200950564   -4.40190283292504
H          -1.44789203985683   10.23724863909612   -5.50813695525087
H          -3.20246146687266   10.05382052639680   -3.01222079626656
H          -0.12564809629199    9.93632325090629   -3.08330995686756
H           0.69025476129935    8.38407017874385   -0.97189886698076
H          -0.29298512967072    6.53444905134473    0.52829338608911
H          -1.87043800788471    4.69995680686619    1.45282676593696
H          -3.91600997842598    3.18536693668615    1.83578324010500
H          -6.37156623997829    2.95926424304118    1.20862137397210
H          -8.90250474815104    2.65221837544801    0.67205507475504
H         -11.57684076659515    3.14093209301600   -0.37978001518746
H         -13.90594823503555    4.24937408071057   -1.67482993768084
H         -12.07501670247619    7.83667803751308   -3.23439907681021
H          -9.39689236968754    7.31356054029103   -2.21735305398642
H          -7.09370057296230    6.22522781431031   -0.97829136243686
H         -14.62157580987122    7.58537781353832   -3.73028798810770
H         -15.91062714604903    5.02294216739882   -2.65197971287646
H         -16.71466422823968    6.36217189931246   -3.60058303669164
