100
 SCF done       -195.943817133056          0.000924291493
C          -7.62325601969800   -1.34744722951952    1.54936426635644
C          -7.08815994980124   -2.49280122307981    1.01018154543281
C          -7.09989093138154   -3.74823070162214    1.65068278053170
N          -7.07659169894752   -4.79794663615822    2.11591148742550
C          -6.45785249263610   -2.58689939463441   -0.24614417496810
N          -5.93510961285175   -2.73933991755457   -1.25859216691447
C          -8.28151326465117   -1.25824990383973    2.85199748874845
C          -8.69729684297803    0.08109918440968    3.05806808020870
C          -9.35509223455516    0.49130349936591    4.19095521318109
C          -9.61928305651638   -0.47053909614091    5.17267019504775
C          -9.20069020212058   -1.80477360455651    4.96091035346489
C          -8.53238569465150   -2.21754090654296    3.81298912774053
S          -9.62991349611148   -2.82840574054773    6.29706315392509
C         -10.35783410789819   -1.46872605054647    7.11034477573875
C         -10.28315040572213   -0.30668177482637    6.41911310400406
Br        -11.14863979755751   -1.71291049916640    8.79336498518686
C          -8.31081921627971    0.88067057892804    1.88518739903017
O          -8.51434475153472    2.07811919389089    1.72505810013755
C          -7.65155908386805   -0.02882919341673    0.96174820888450
C          -7.15626371078866    0.32603640716514   -0.27979959901282
C          -7.14943580639216    1.55475074277585   -0.91977537944867
S          -7.78495827579930    3.06000719404728   -0.27344555001792
C          -6.61585191484759    1.75312289248689   -2.22519506348071
C          -6.05417101147043    0.80773033453671   -3.08429348578900
C          -5.59315719595514    1.15859870201018   -4.34215459959756
O          -5.09992603777394    0.12390830747136   -5.04802219674763
C          -4.57623302086633    0.25446028314252   -6.35259911319408
C          -5.66906754034536    2.52491425090781   -4.77449688770632
O          -5.17223147361682    2.82395954548741   -6.00264003076077
C          -5.10826112870743    4.17260263678723   -6.41177736414167
C          -6.22782747709607    3.46204865971021   -3.93711225306435
C          -6.71425634665450    3.09380234037760   -2.67108974447025
C          -7.34238698792371    3.90448535720351   -1.71137494113387
N          -7.63767933163025    5.20641946422388   -1.94339392569063
C          -8.29422723595242    6.11352284011841   -1.18160834582172
S          -8.50683478380185    5.95300560248399    0.52535719067256
C          -9.13688358727006    7.57716233980854    0.56706112644397
N          -9.54684002413864    8.08009782842089    1.80810071707325
O          -9.98657480273709    9.21390158968406    1.84288531002317
O          -9.42656621180125    7.33513476333749    2.76476994433929
C          -9.17881333198308    8.19187796357802   -0.65518414915660
C          -8.73338682457584    7.35277159831170   -1.69305782549508
C          -8.74298340749414    7.69071758419928   -3.08709915871311
C          -8.89965129932554    6.75495456595325   -4.06764674800219
C          -8.75455417063767    6.87282465379339   -5.46191261177877
C          -8.65267578159436    5.75342884060074   -6.31335624513146
C          -8.83874054747231    4.38062120968649   -6.05744203274731
C          -8.68074874698774    3.48795725064580   -7.08128045871798
C          -8.38084529926201    3.92487829929964   -8.38840428996804
C          -8.18420233446666    5.24959267260712   -8.67010636877488
C          -8.25874868319647    6.18623784146154   -7.62599423917040
C          -8.09249930930150    7.58671950929520   -7.61944057301796
C          -8.56979845932871    8.05669316388440   -6.30433208911330
C          -8.95802162654365    9.30663733244289   -6.02559796832442
C          -7.62511258884092    8.43151396985424   -8.61711661915918
C          -6.77341441510082    8.11294494371892   -9.66273696128744
C          -6.51474357677832    8.94342341692090  -10.80948172696897
C          -7.20204146086768   10.07883249618875  -11.17456018042510
C          -6.91852226418707   10.83823961093982  -12.32616226184201
N          -6.73192537140313   11.50034929678319  -13.24637377559248
C          -8.27888120590495   10.63440190109790  -10.45725797989120
N          -9.16511001622930   11.13830324194334   -9.92564002048921
C          -5.42894026679992    8.33078565704694  -11.57121713848688
C          -5.01037723499929    7.16134502540771  -10.89159612669308
C          -5.81726520851590    6.99448563046822   -9.66385726052972
O          -5.63851615365889    6.15263131372234   -8.79969184362040
C          -3.99956536827995    6.35783312838914  -11.35669954600797
C          -3.37537391975239    6.72124036796593  -12.55580431160843
C          -3.79988803520913    7.89128786836077  -13.22634598516848
C          -4.82084551695768    8.70783556416935  -12.75196753763692
S          -2.89245879273706    8.15797549623480  -14.68395924607027
C          -1.96909850797125    6.71160109524544  -14.37782240430992
C          -2.32019145844545    6.06124688802540  -13.24310776581933
Br         -0.62852571157799    6.19481318513012  -15.58464675637910
H          -9.65786990742657    1.51892166960400    4.31687743482791
H          -8.23542088440967   -3.24671689670855    3.70105780692498
H         -10.67927517905849    0.62816748043437    6.77120650756208
H          -6.70407507914006   -0.46630980699715   -0.85928187992271
H          -5.95880262376017   -0.22970675755117   -2.80684366695629
H          -5.32081732196131    0.63818532120052   -7.05230185491270
H          -4.29271251515449   -0.75793735524039   -6.63915390990457
H          -3.69553798132356    0.89865315268976   -6.37238143105221
H          -6.09847948313853    4.62309728965430   -6.50069457177897
H          -4.65053485448886    4.16368123127984   -7.39764510220350
H          -4.49133754797597    4.76578360146173   -5.73046756335145
H          -6.28719774831197    4.49073780937998   -4.25644660316058
H          -7.35877018239361    5.55798791418118   -2.85662591865746
H          -9.55414992715333    9.18985971066877   -0.79194656306409
H          -8.62518536678371    8.73653424436978   -3.32256118345959
H          -9.14504978944512    5.74869318803267   -3.74949651240766
H          -9.12385685937335    4.03432833058668   -5.07459082073191
H          -8.81616999898224    2.43209089034917   -6.90032852730698
H          -8.31773246371697    3.19120954214262   -9.17782675264869
H          -7.99835967467036    5.57681086934106   -9.68020651622873
H          -8.88517267886911   10.09761226310332   -6.75292471587764
H          -9.42117465358575    9.56664517121434   -5.09041557030465
H          -7.91175457778785    9.47181145848770   -8.53075368758461
H          -3.69987245679486    5.47305053276321  -10.81712255444802
H          -5.10509600597347    9.59203986763206  -13.29730049959329
H          -1.85468057633469    5.15406402422053  -12.90358486806635
