83
 SCF done       -179.156699591247          0.000514425924
C         -12.45903898661843   -0.95965342189948    0.68962222959783
C         -12.11164160183400   -2.11177885152109    1.35262261630684
C         -12.81996770801739   -3.32659458724562    1.25143277128749
N         -13.34983000808647   -4.34464998922112    1.21412982861128
C         -11.01648798234075   -2.25555561651054    2.22774324093795
N         -10.14363195914503   -2.44649266584170    2.95077793262288
C         -13.60226225131730   -0.82174858361503   -0.21000329082400
C         -13.65352625950345    0.51525146572126   -0.67595900589837
C         -14.61600864750418    0.96418997013711   -1.54590487202765
C         -15.57702085021180    0.04597300142983   -1.98328912760914
C         -15.51862030388475   -1.28766114588819   -1.51514053411960
C         -14.54501281922013   -1.73968151085511   -0.63142269835254
S         -16.79640075551941   -2.25599565907321   -2.18458167751812
C         -17.38286667894507   -0.87506042202918   -3.07293897742434
C         -16.66141509100572    0.25445106369202   -2.87866464532229
Br        -18.89045409953216   -1.05465407855494   -4.17413126168831
C         -12.53521637033448    1.27061148322527   -0.08536863776808
O         -12.28656319707949    2.45204324041124   -0.26648897254749
C         -11.79450496182054    0.32436520149292    0.74648740942830
C         -10.64137593417410    0.60311923677818    1.44845454018744
C          -9.91457638730605    1.78545747146690    1.56437885228265
S         -10.29255518647189    3.31381309189297    0.82244236556819
C          -8.88051531430318    4.07135867544186    1.45831747181467
C          -8.14010259103868    3.19308126841142    2.27982849878648
C          -8.72177778127455    1.89491123876732    2.33342181050711
C          -8.11959096241912    0.89155851320023    3.10834920137570
C          -6.99113590103070    1.19337613089389    3.82462123926308
F          -6.40281737551031    0.25015000434425    4.57070762443272
C          -6.44724322886424    2.49211717500035    3.81355607323304
F          -5.36715157059958    2.75882252920396    4.56555707974683
C          -7.00819746444053    3.48559668126801    3.05880493531869
C          -8.62874987719456    5.41783663452588    1.09552427153544
C          -7.42220815646506    6.03518323934351    1.05933406149578
C          -7.26285466660937    7.41263365741865    0.69415561127679
O          -8.44702114880219    8.08517564396828    0.53051541171272
C          -8.42337464948017    9.42056602813921    0.26964194655197
C          -9.57429528762837   10.15127165147758    0.18978535010248
F         -10.81082822802223    9.67899471666976    0.34148201658307
S          -9.31687762336149   11.83227328210697   -0.14259344248825
C          -6.03397151807736    7.95405798777872    0.54609455283173
S          -5.65704120146218    9.59796000677410    0.11857181233045
C          -7.28848632155689   10.23603995733526    0.05559561222504
C          -7.58462383482985   11.56907991610769   -0.18269882138717
C          -6.64277923799434   12.58164691828407   -0.43235352512874
C          -6.87405988816587   13.91856251418947   -0.61516938788288
C          -5.87499847709213   14.89595493687052   -0.87011883076567
C          -6.34978549150401   16.16341850586390   -0.98823781761576
C          -7.75218314457516   16.26660697817666   -0.82869769718778
S          -8.45006260258478   14.68248451877233   -0.54316232715791
C          -8.52153543352131   17.41052625679373   -0.85518851729897
C          -8.08611203386512   18.74157465328624   -1.06541973234726
C          -9.08196392404223   19.66291633824770   -1.00151272988990
C         -10.36661517762677   19.11751431171678   -0.73350999956244
S         -10.25263313047666   17.37173524032099   -0.58641129845944
C         -11.52101457747334   19.83597412542886   -0.58784609809071
C         -12.80643256367305   19.34339802948205   -0.29888733871471
S         -13.23046536487816   17.65059235092835   -0.10445437553155
C         -14.88494497772391   17.97315727707716    0.21957319988320
C         -15.13328943007025   19.32594292220744    0.18848765306597
C         -13.96045518867103   20.08437833003330   -0.10551124433563
O         -14.23077673786754   21.40541760616303   -0.12310717356930
C         -15.55961055805567   21.49994820772970    0.15653298757372
N         -16.12798734657047   22.79601229646970    0.21171855277706
O         -17.31690261447364   22.85414045828636    0.46193047251236
O         -15.40121729129845   23.74419525242573    0.01013147775496
C         -16.16649445536479   20.28924375585743    0.35458496230999
H         -14.62670167424871    1.98948895546416   -1.88089043173104
H         -14.54503951144375   -2.76656198223243   -0.30669257032800
H         -16.88263627322879    1.19596499977504   -3.34731188701170
H         -10.21276438422618   -0.22400901829218    1.99596864041106
H          -8.51888970810308   -0.10832220084996    3.17166526391214
H          -6.59491394142574    4.47849598462680    3.10168484841737
H          -9.49213735066462    5.97580219906670    0.75693135221108
H          -6.50961570000156    5.49793428214163    1.25964708794007
H          -5.15427613272065    7.35216319370659    0.68659104356484
H          -5.61219522158014   12.25159440047953   -0.47579818508248
H          -4.83860426649318   14.62115303795337   -0.95401904393240
H          -5.73492492466418   17.02461083393972   -1.17710746821739
H          -7.05454264947909   18.97776202144058   -1.25360230909966
H          -8.94445647019343   20.72166090638973   -1.13099616412126
H         -11.45745625725763   20.91157876799667   -0.69024611709350
H         -15.56036801896943   17.16553257972343    0.41078517866130
H         -17.19970512536295   20.13305562168856    0.58556914646911
