94
 SCF done       -168.231848384441          0.000484183500
C          -2.08171845239267    0.24690751190725    3.06760895472143
C          -3.43802654657743    0.13605153263969    3.26614716748803
C          -4.02685708885403   -0.55361399280036    4.34439220604813
N          -4.56953493860498   -1.09198832097320    5.20176837174277
C          -4.42810737495266    0.69742886844625    2.43648382559090
N          -5.29288137222303    1.12363552916841    1.81094753890913
C          -1.05105212967428   -0.35321823562540    3.90545604324908
C           0.22141392307406   -0.01426258580719    3.38252066390419
C           1.39548313029595   -0.43681855389716    3.95471223515397
C           1.31247833300606   -1.24256985678206    5.09578914664399
C           0.03794899258977   -1.57570481245560    5.61228696803016
C          -1.15022733918278   -1.14286111678772    5.03667906321295
S           0.16384913218217   -2.57340090075233    7.02961128941526
C           1.90310360444238   -2.53073100290794    6.90939135790123
C           2.36760433700876   -1.80779196847476    5.86302281515307
Br          2.94049524848352   -3.44221201178095    8.17819383833902
C           0.05098369936872    0.83932307392969    2.19240981146348
O           0.91819843008820    1.45368949510214    1.61376036045442
C          -1.42122992053047    0.92654039289342    1.97478733506754
C          -2.00739804227179    1.65191351108587    0.97863897130908
C          -1.33497802349903    2.07163871928585   -0.19534096091264
O          -1.81539534422343    3.14526452093126   -0.88671199732286
C          -0.27465388262414    1.53999837417944   -0.90727736777818
C           0.66815878494585    0.41658278964011   -0.98069872885869
O           0.79967259705543   -0.56177829005463   -0.29376396661654
N           1.40189352911046    0.68490694741713   -2.13565447681653
C           1.00777665561755    1.81449124756114   -2.84769202197300
O           1.50538157630946    2.19875756861191   -3.87412302693739
C          -0.10296192192264    2.34844700071654   -2.05399565304747
C          -1.06924476721578    3.33648387521184   -2.00462822236852
C          -1.33317305135432    4.41498504510380   -2.89221584401429
C          -2.30009128215603    5.33472649168776   -2.68111115127021
C          -2.53500344120597    6.42790305082644   -3.57154989547354
C          -3.41932930327872    7.42209197502212   -3.38656602311040
C          -4.31931822732397    7.55707527318696   -2.19990066784528
C          -3.57444058005412    8.53777079754921   -4.40109629122176
N          -3.14097990406408    8.22532351140633   -5.73402621030326
C          -1.85764748836055    8.32822057659648   -6.14788890624531
C          -1.39825273736994    7.83694758837127   -7.32917486934291
C          -0.07091233030795    7.98391740110585   -7.76937641845013
C           0.40063886320522    7.52893059714863   -8.97264808255587
C           1.72376189355297    7.61591888565309   -9.46867897073274
C           1.89568268117488    7.08509920746321  -10.71028899173669
C           0.71476002244114    6.55179444901496  -11.27634775950940
S          -0.62400157981406    6.73412833333024  -10.16658713111813
C           0.55548127012026    5.97130487762205  -12.51842209591443
C           1.53651509488456    5.74443060929079  -13.50957020576927
C           1.05486414168873    5.16143429613197  -14.63877666899466
C          -0.34298945692118    4.89085099955222  -14.62549159958436
S          -1.00614361383421    5.40867629159730  -13.07966245580491
C          -1.02414400230907    4.33265665819038  -15.66912595885063
C          -2.40827119648926    4.02693170743552  -15.81785381082122
C          -3.38545525203658    4.22121359309253  -14.84839552629121
C          -4.72386782125141    3.90626630153513  -15.07839086806182
C          -5.13884234409866    3.38808147765979  -16.27917567910945
C          -4.19260697338744    3.16654570317329  -17.29613435995608
C          -2.82693510885717    3.47924390194617  -17.07424709527443
N          -1.92173037571600    3.26317098163951  -18.04631824049575
C          -2.32514417059830    2.76526501135123  -19.18891131825166
C          -3.69743910362268    2.45680437821175  -19.41236420823403
N          -4.59314030814154    2.65697229077784  -18.48119483510544
C          -4.16912294234451    1.89406880719118  -20.71275230787461
C          -1.29133775286931    2.53676163005074  -20.24204291629714
H           2.34768958797404   -0.16126897651212    3.53006738776378
H          -2.09556596081819   -1.42204803500374    5.47104163711819
H           3.41073009876103   -1.67692580786882    5.63984046900006
H          -3.04858005322586    1.93707100581704    1.04270334602517
H           2.15224159148356    0.08428301031599   -2.44630229880614
H          -0.68873611155413    4.46265930425365   -3.75822820364359
H          -2.91670450898162    5.24002725808819   -1.79961033231165
H          -1.91938465190144    6.43384929807631   -4.46261668395394
H          -3.89843348873192    7.08674887540332   -1.31723979103913
H          -5.28263167638470    7.08933857109815   -2.40753071521265
H          -4.50073546582749    8.60760344001068   -1.98099122232035
H          -3.00590834450986    9.40773519729793   -4.04975055069387
H          -4.62875286519275    8.83063476871591   -4.44342419957961
H          -3.73689262523569    7.60791502929296   -6.26641524329476
H          -1.20221508015067    8.88462873367978   -5.49131767796940
H          -2.07894534236911    7.29973133006723   -7.97667855056649
H           0.63202669458827    8.48459714261029   -7.11643286967228
H           2.50814342287724    8.06826483932811   -8.88733031005802
H           2.83328143388053    7.06669668422333  -11.23630102391906
H           2.56633387968828    6.01592315475630  -13.36035443944990
H           1.65409832612765    4.91411767706966  -15.49727000844993
H          -0.43048048565471    4.08819688762424  -16.54121621870592
H          -3.11137179255447    4.62483367072845  -13.88714128264029
H          -5.44209421526996    4.07812884944078  -14.29002300164092
H          -6.17067107161433    3.14220305457616  -16.47329118376971
H          -3.68420709986611    0.93939184116038  -20.91158463303727
H          -3.92802458525498    2.57159079331597  -21.53045119433765
H          -5.24462439229178    1.74858609786645  -20.67028206654011
H          -1.51697222066857    3.12616573872049  -21.12979505011216
H          -1.26944026625533    1.48727199640358  -20.53205052116627
H          -0.31631118016774    2.82439656023860  -19.85924774507100
