117
 SCF done       -198.613280519857          0.000969581201
C          -5.38540946645316   -2.24270325423524    4.77583590540198
C          -5.95622165681355   -2.77030016878045    5.90562221578494
C          -5.75606793785806   -4.09654274333612    6.34504823942981
N          -5.64190254167984   -5.15942629549049    6.76381254865441
C          -6.79376802198397   -2.10010064622409    6.82338051006464
N          -7.46993383701918   -1.65142625344458    7.63720443020123
C          -4.45401047614649   -2.95545047396938    3.91181729623093
C          -3.96633494232351   -2.05353536034507    2.93834131476129
C          -3.05715354989381   -2.41793382358101    1.97506342835845
C          -2.60965424619018   -3.74260268410677    1.96945266704314
C          -3.10736876637073   -4.64110853138058    2.94309904622880
C          -4.02383635573536   -4.27021617304434    3.91851525079231
S          -2.42925966697470   -6.22994990379173    2.75247849711616
C          -1.49878496909649   -5.67241641635683    1.38719450845213
C          -1.68481303194441   -4.36518762047121    1.08706350265925
Br         -0.37179882513174   -6.86990743139456    0.48478159066303
C          -4.58422104638094   -0.72697122979465    3.13305198649489
O          -4.34060511749410    0.25241475629783    2.45818600130279
C          -5.53257850432110   -0.88345453873304    4.26209613298074
C          -6.49115231627715   -0.03192634788343    4.73536818176319
C          -6.84293842606565    1.32799333214894    4.46905620174406
C          -6.08369057614879    2.22527090385150    3.69536062505859
C          -6.51440639033997    3.51890468982877    3.54835805319994
C          -7.70390180461524    3.96171661685248    4.15379364159323
C          -8.46765346560553    3.08746436133233    4.92050139848978
C          -8.03052321983268    1.79295561215954    5.07582992907814
C          -7.87662632106636    5.36208323249182    3.85562701318989
C          -6.79338686891288    5.79377247314896    3.06666383866362
C          -5.87487437472290    4.63548811949609    2.74994066334390
C          -4.42656573241177    4.89878830889815    3.18658182484904
C          -4.31186532920111    5.17137130801783    4.68212740691933
C          -5.95480450943289    4.22524785660954    1.25966323189298
C          -5.47948910706575    5.26789502470898    0.25619035541212
C          -6.68262165363876    7.11867810729703    2.71980970007537
C          -7.67600777904084    8.03316839999843    3.10602927539318
C          -8.76078981858800    7.57655710613266    3.86698220000531
C          -8.86129931656309    6.25705979217152    4.25258668126835
C          -7.53404938626061    9.40671208856982    2.67868145713155
C          -8.46223064568403   10.36886956147247    2.79859095407900
N          -8.36143160606468   11.65695651951961    2.30854184347312
C          -7.46412422232514   12.16593734151346    1.41542562157766
S          -6.94795155884483   13.81103717687943    1.65961797578128
C          -5.96474809774551   13.70882300636631    0.23361222152501
N          -5.25127156622528   14.84264718040217   -0.15234119195555
O          -4.55943114445360   14.76616674373821   -1.15397773254075
O          -5.37172448104494   15.83755612384896    0.54731203569301
C          -6.03560936181922   12.48780177988494   -0.37882269670035
C          -6.90705371512685   11.58279859033220    0.26530885393219
C          -7.23684994206141   10.28057962423320   -0.23238748559750
C          -6.63346081115007    9.68456834772207   -1.29489102688404
C          -6.92532456900346    8.38125680386634   -1.73376993120210
C          -6.34246546412451    7.80499871474265   -2.83549633882686
C          -6.50850405000205    6.48173298163943   -3.31048830519507
C          -5.80218726359880    6.19843633229548   -4.44171124107788
C          -5.05606031626653    7.28695960138827   -4.94017431682867
S          -5.25096126397526    8.68042111373766   -3.89772583922088
C          -4.29445990804015    7.35166175791771   -6.09216458492231
C          -4.00099510420249    6.31586010713324   -7.00643414833851
C          -3.24461551782507    6.71622593943179   -8.06542736900419
C          -2.90987860062259    8.09432280552831   -8.06660416705176
S          -3.57062556657500    8.85111407962573   -6.62445446464005
C          -2.20754969576384    8.74139863034679   -9.04987267242508
C          -1.90420584177503   10.11550642790431   -9.15695379799341
C          -2.21506877960013   11.17537465593074   -8.30003890488373
C          -1.73256733058268   12.37800363128398   -8.87350083891464
C          -1.79955192023867   13.68556987081666   -8.44411754150310
C          -1.23304075097420   14.67154149305180   -9.26678274822313
C          -1.14463962707918   16.04981443022174   -9.13127740024653
C          -0.46612197812992   16.59290788449120  -10.26677385377021
C          -0.13309254479299   15.54582143365187  -11.10730854536113
C          -0.59300012752924   14.32410746494209  -10.52350685782498
C          -0.51986024728948   13.02606203280587  -10.95216587020324
C          -1.09468657413773   12.03175215899229  -10.13106322630648
C          -1.20218635989365   10.66400105282189  -10.28589745117880
C          -0.21033195184081   18.00355804752545  -10.44004675781125
C           0.41619531704053   18.55412591082537  -11.47601148437048
H          -2.70420541744637   -1.70311821363726    1.24822837952045
H          -4.37288463274642   -4.99459203277566    4.63472864573195
H          -1.19126923095515   -3.85916676132853    0.27752923641440
H          -7.15076633770017   -0.47804662821232    5.47146677045836
H          -5.17097524110907    1.89472610170754    3.23160326977301
H          -9.38006254042394    3.41947255000951    5.39230981778739
H          -8.60846439622153    1.10774465578023    5.67947391471919
H          -4.03897486399805    5.75865452517075    2.63909094651443
H          -3.81988115659334    4.02947108420673    2.92639694469332
H          -4.91131487570237    6.03535860700290    4.96205188153389
H          -3.27630624163858    5.37078246193378    4.94777519101697
H          -4.65508939276661    4.31520775001584    5.25876075938358
H          -6.99584264127015    3.97329892801765    1.03833118165520
H          -5.36322266527291    3.31552472402718    1.13824537969687
H          -6.09903839462905    6.15992259396297    0.29103344166579
H          -5.54115002224668    4.85503412871650   -0.74858947782458
H          -4.44590736928195    5.55029485437680    0.43573415566909
H          -5.83691535352477    7.47730534936368    2.15208092357313
H          -9.52565967259021    8.27053246946890    4.17855031617540
H          -9.69132837765653    5.92634533342752    4.85881307272265
H          -6.60149869080976    9.64462209939865    2.18606359336694
H          -9.39577422281111   10.19804611915591    3.31434485203946
H          -8.88169816546073   12.35489206271617    2.82332940154675
H          -5.49515301167599   12.27975388321720   -1.28357711984571
H          -8.02607046272961    9.74673500658224    0.27497472740045
H          -5.86272530863292   10.20835731412392   -1.84367486399782
H          -7.63589590506177    7.78999952361809   -1.17114021571406
H          -7.14481452506586    5.78129600083188   -2.79865051661623
H          -5.81199669081342    5.24394216520091   -4.93745258161287
H          -4.34937401121102    5.30972632381966   -6.85610612567741
H          -2.92379006968531    6.06635202042285   -8.86098472976553
H          -1.86311988682127    8.11742769173461   -9.86641753272338
H          -2.73432791601532   11.11358794360829   -7.36346735475231
H          -2.27482804236289   13.95058431998600   -7.51054227941313
H          -1.52230666769679   16.63075134032918   -8.30871221274999
H           0.38317662217585   15.61546623673737  -12.04623121969154
H          -0.04628243832653   12.75831326885980  -11.88664800365198
H          -0.83274730614443   10.08385937735754  -11.11347522564861
H          -0.57582033258685   18.63607715270231   -9.64032051289277
H           0.79683303313435   17.96556755794039  -12.29318451889352
H           0.57193536126739   19.61700055197889  -11.54054978347892
