112
 SCF done       -191.596018792297          0.000882181785
C         -10.88047153614616   -0.65679045229898   -3.44039552563116
C         -12.09006802943050   -0.46720352842441   -2.82250504105649
C         -13.33274922460549   -0.57120405626995   -3.47790863931185
N         -14.37768486996914   -0.65151466140622   -3.94847013508741
C         -12.29871702736601   -0.14515325950797   -1.46532655900877
N         -12.58462618325561    0.12229565420428   -0.38476660502331
C         -10.70266998447702   -0.95455542575140   -4.85631381314047
C          -9.33289170909001   -1.21222672728162   -5.09977753653637
C          -8.85011573187935   -1.52374976554146   -6.34583327298700
C          -9.75538207409918   -1.55892807762684   -7.41020256784617
C         -11.11916993159029   -1.27841586216527   -7.16125907616342
C         -11.61219137581875   -0.98100322143495   -5.89792873953066
S         -12.06452547081642   -1.36364042271078   -8.61792522511522
C         -10.63452307900045   -1.77496979164783   -9.52579176063142
C          -9.50640885685499   -1.84472533181500   -8.78048641302964
Br        -10.76287517856847   -2.07643070940297  -11.37262464445781
C          -8.57701356718409   -1.07495162877939   -3.83756307857703
O          -7.42235167415549   -1.39699624878912   -3.65716384176363
C          -9.55484994615067   -0.58175306174180   -2.84223722624317
C          -9.30888495249578   -0.12196299150962   -1.58705857908480
C          -8.08953388374804    0.23842193651540   -0.91982898072344
C          -8.09601567276354    0.05872583076752    0.48126926749524
O          -9.21532484052500   -0.52712179848858    1.02346473109839
C          -9.94295240075173    0.25669605358766    1.97132878397970
C         -11.07076615217856   -0.59765252042545    2.52107808354139
C          -6.99399848666679    0.37810888641108    1.28015149406013
O          -7.00170711378536    0.08917406706504    2.63356851444720
C          -7.14945390856342   -1.28962218285309    2.97641060765127
C          -7.06990073985524   -1.39852487747139    4.48903873072842
C          -5.90357463497475    1.04122269737911    0.68616864863717
O          -4.80316503364830    1.54594947937016    1.28032598628849
C          -4.46220953069287    1.31597277384595    2.63866356324608
C          -3.69833117892631    0.00748355269823    2.80857079413147
C          -5.94300344645452    1.28646358555575   -0.68873131380317
C          -6.98031699144249    0.88670430378767   -1.50326927932238
C          -6.93502317550240    1.20971933833211   -2.93824040665663
C          -5.85237313123901    0.73265188770566   -3.68656171877925
O          -4.81958993273644    0.14384326322107   -3.00581097210043
C          -3.53846064191945    0.73943400903532   -3.18817417682161
C          -2.59805790873127    0.11307934354263   -2.17203265631326
C          -5.85437890782763    0.78040235157015   -5.09067272136390
O          -4.84457655148495    0.17125269524654   -5.80864060683796
C          -4.70226250099489   -1.23619728119329   -5.59942999597688
C          -3.44381431760124   -1.68906001767814   -6.31988505800991
C          -6.89989939247538    1.44821590275938   -5.74765325897609
O          -7.06131058338292    1.62773048680597   -7.08266029914123
C          -5.99990525935502    1.47002811773998   -8.01362370332654
C          -6.10137983685694    0.14747631325028   -8.76362874073998
C          -7.92223944684754    2.00341145769494   -4.98387850912460
C          -7.96677792994747    1.88727395298028   -3.60182463428358
C          -9.07302283589959    2.48694482581897   -2.87965887354154
S         -10.67788638646165    2.46139027724337   -3.54273841406289
C         -11.36746717133980    3.13671832285171   -2.09057271993843
C         -10.37182795311520    3.41918067424056   -1.17536468360156
C          -9.07709953371428    3.07483734803975   -1.63403381140597
O          -7.91572897638142    3.25221201830288   -0.94577154923158
S          -7.81093426120188    4.56356681524352    0.07147544072818
C          -9.11800635047214    4.03918133421655    1.20252940725043
S         -10.75215407401921    4.12514301758241    0.39260164521888
C         -12.76446547451400    3.31131860085595   -1.91625031042421
C         -13.69916296566970    2.95352575065702   -2.82257048990154
C         -15.10084938810839    3.09533139133208   -2.62097725370955
O         -15.57734142593647    3.64670798698971   -1.47374182177363
C         -16.91271095063449    3.64106975494685   -1.55588340561518
C         -17.32766015049133    3.09826522754212   -2.73570395321934
C         -16.15841809716742    2.73796231023736   -3.44254697559672
C         -16.08370765789597    2.09158195373792   -4.77862452690108
H          -7.80270138723842   -1.72668709058854   -6.49960905082306
H         -12.66063882005270   -0.77774870416829   -5.76013767169816
H          -8.53941457483678   -2.09233515330658   -9.17900349019535
H         -10.17946130691901   -0.00546208474143   -0.95090827068556
H         -10.36466871574342    1.13372050843155    1.46046959389454
H          -9.28325892908010    0.59972116422145    2.77715284776820
H         -11.63302037369680   -0.02588325216707    3.25349744874453
H         -10.67507840696604   -1.49382306606330    2.99236298124897
H         -11.73635820541435   -0.88545953756214    1.71219740114958
H          -6.34591663277911   -1.87067276512282    2.50266768529219
H          -8.10477888037907   -1.68066858482845    2.61298390652675
H          -6.11224777921573   -1.02694059552704    4.84507454005778
H          -7.18152248567241   -2.43754549786896    4.78595171101369
H          -7.86149707613526   -0.81150164056128    4.94757416076663
H          -5.34774440742614    1.33827629343931    3.27613788928975
H          -3.81362231533149    2.15946547879545    2.89551410252553
H          -4.31332648045193   -0.83555103173891    2.50595442908959
H          -3.41305603043425   -0.11977609262979    3.84898558501915
H          -2.80123340494264    0.01700797593374    2.19425085085951
H          -5.12036018305332    1.84769911026867   -1.09841723402279
H          -3.61205480797853    1.82439117278938   -3.02594873937957
H          -3.16831650781632    0.57598513921112   -4.20707041612312
H          -2.96735239355167    0.29425715412770   -1.16617979541705
H          -1.60501266724468    0.54218283444426   -2.27420575346218
H          -2.54337895434133   -0.96048731306845   -2.33129106893917
H          -5.58396379886161   -1.75005155434597   -6.00660318585752
H          -4.65238538009558   -1.47003262198580   -4.53326946543150
H          -3.49577400445691   -1.42390990938388   -7.37323048693679
H          -3.33942138429821   -2.76645548791502   -6.22769714867675
H          -2.56759714683307   -1.21176546626105   -5.88868097059209
H          -5.03042403835481    1.56613268445560   -7.52255666234831
H          -6.12494186276558    2.29875118291353   -8.72035927759250
H          -5.95772977938474   -0.68701283952191   -8.08434082121995
H          -5.33900507686059    0.10624376097571   -9.53678518555090
H          -7.08201136833940    0.06390880725457   -9.22610970023887
H          -8.70716648211321    2.52718419658622   -5.50771445642188
H          -8.90917318028001    3.02184186220979    1.52980462579894
H          -9.14897197037045    4.72670065784598    2.04200954889948
H         -13.06952585176630    3.73824763535679   -0.97057102728841
H         -13.40006139102224    2.52252801944849   -3.76839990638005
H         -17.45646377560182    4.04545463528167   -0.72467817182262
H         -18.33923676343676    2.96918039240725   -3.06287771017742
H         -17.07202721998879    2.04275648540513   -5.22714210702295
H         -15.69237489530627    1.07887290255842   -4.68162602829378
H         -15.42153531541807    2.64748858627233   -5.44071710189128
