98
 SCF done       -193.528899458715          0.000697482448
C          -1.42977391493685    0.57913054377326   -0.94193362564284
C          -1.19594556352539   -0.33249522505611    0.05627388041733
C          -0.05983265046397   -1.16337221820966    0.12198103826723
N           0.84560184071977   -1.86162769709881    0.22760946133610
C          -2.06298122064370   -0.54675557754848    1.14640340500913
N          -2.73966936541543   -0.75042876262015    2.05132379574033
C          -0.55231998196515    0.84409139820562   -2.08041221488571
C          -1.12800138034797    1.86776446231701   -2.87732106348517
C          -0.53501189493603    2.33515423111293   -4.02494560982144
C           0.68385362548475    1.76496321615486   -4.40824823020324
C           1.25012139018710    0.74479040886704   -3.60828815153439
C           0.65066586257467    0.27305501909281   -2.44536242805601
S           2.75515321351568    0.17920673793311   -4.26448158122599
C           2.60516305873277    1.30362445592556   -5.58855873241518
C           1.48682125102505    2.06622343284395   -5.54199256130320
Br          3.93981441632773    1.36798361464370   -6.90455876190781
C          -2.39810784699767    2.28110867808651   -2.26864406165566
O          -3.17583110428063    3.14258880472192   -2.67356955870115
C          -2.56782543496359    1.45601332842690   -1.07194669777797
C          -3.68959616102029    1.56024978180125   -0.28099833268735
N          -4.64697969206238    2.43844126374807   -0.59500009096832
C          -5.82821518848960    2.63288516022299    0.03850157320230
S          -6.27152970960822    1.71431888598703    1.44412433785254
C          -7.79156265342500    2.54939938587107    1.47531619372173
N          -8.69283246719518    2.22288719568975    2.49973679414948
O          -9.75913567677479    2.80706352811443    2.52133365100808
O          -8.33389071645092    1.37291168786602    3.29468233814950
C          -7.94326287538426    3.46627476036387    0.47328482144474
C          -6.81629383949986    3.54331430737604   -0.37520186888025
C          -6.67060590443307    4.42557434145664   -1.48864918431940
C          -7.67416462525282    5.17935805592976   -2.01353464370517
C          -7.49725112456780    6.06568208250581   -3.09069059593118
C          -8.51532687418156    6.77426867185971   -3.67474401996294
C          -8.40467319034416    7.70265423863438   -4.74350844644919
C          -9.58609361270510    8.24459341829416   -5.13899513341935
C         -10.70746688641634    7.76856134178394   -4.41512886495875
S         -10.19671041208491    6.62400994015926   -3.19156122804822
C         -12.03422697182190    8.07819692205241   -4.60545129642608
C         -12.58847004510883    8.98179639831887   -5.55347394399863
C         -13.93944142114908    9.04325732867288   -5.53499784786373
C         -14.55284254540831    8.18245148766352   -4.56892000677525
S         -13.30264118578243    7.31806450130156   -3.67104861608305
C         -15.87258759588539    7.99233567925232   -4.36862801275955
C         -16.41915301258532    7.04939806281490   -3.37236263723986
S         -17.62774910298398    7.90104562151475   -2.23886120373141
C         -18.93764890756773    6.65877552662061   -2.52368037011511
C         -18.18357826572796    5.38426236806359   -2.93485535028654
C         -17.20986973407620    5.90699980858839   -3.99781353036302
C         -19.17047832721672    4.36264580878063   -3.53964435045662
O         -19.10252812414281    3.99931199157918   -4.68812046234531
N         -20.15583911526527    3.97714301727052   -2.70308970437925
N         -17.54434085355559    4.87450273052402   -1.73208805825823
C         -17.55406194578057    3.62106538043592   -1.25109650852248
C         -17.66705980366593    2.44437453525502   -1.93911774262675
C         -17.29709920349327    2.08897314263100   -3.28625213498948
C         -16.21202494669686    2.60612029367782   -3.94816228184934
C         -15.78469913630538    2.18368161730491   -5.21970079715852
N         -15.40857711839534    1.88363374274645   -6.26197775866020
C         -15.36444825066613    3.53730643248644   -3.31623879614918
N         -14.65486159443988    4.25612743052572   -2.76840372237567
C         -18.00013238603155    0.86118513631688   -3.62891795352459
C         -18.59546444152207    0.34940367606536   -2.44838857574041
C         -18.35433398833019    1.28694733990711   -1.32799849199847
O         -18.72741229985142    1.17757938066370   -0.17931671502984
C         -19.28490040350394   -0.83825342036074   -2.43395514013681
C         -19.39965100813561   -1.54075988980602   -3.63922197424866
C         -18.81204591787668   -1.01037422054564   -4.81245436130823
C         -18.10286534446391    0.18508107814792   -4.82688820021016
S         -19.08693796972304   -2.03829573376910   -6.18559999594547
C         -19.96917727192208   -3.15511873873874   -5.17826193192315
C         -20.05782074115444   -2.77816355652131   -3.88093316161809
Br        -20.69332689107681   -4.71116434055404   -5.93488835128026
H          -0.99651558479894    3.11391716594027   -4.61157726409251
H           1.12148024439272   -0.50713148789608   -1.87109441316386
H           1.23727257881222    2.81011385711412   -6.27634636172247
H          -3.84333704019285    0.94564164373038    0.59622453981920
H          -4.43999783023604    2.98936426167253   -1.44852622756397
H          -8.83162249542286    4.06231214825790    0.37483453641647
H          -5.69284993666191    4.49312737142905   -1.94679343032038
H          -8.67429185862575    5.10466932149595   -1.60915662654613
H          -6.50018726735196    6.19935847360325   -3.48887890875789
H          -7.45013560954867    7.93568552737989   -5.18151917250772
H          -9.68753019623942    8.96216438473731   -5.93331223691656
H         -11.96454099903844    9.55484723373992   -6.21589169646271
H         -14.53622990933572    9.66506057309138   -6.17808108303538
H         -16.58354137215269    8.54544230948919   -4.96579190714535
H         -15.61779669698124    6.65517190081905   -2.74132918808885
H         -19.59624893504545    6.99902694406732   -3.32286780625674
H         -19.51161759200225    6.55286981876975   -1.60453832810658
H         -17.79904886319061    6.26315009294429   -4.84517244657734
H         -16.53363518198786    5.14257341052648   -4.36757081766780
H         -20.16700433963885    4.20420326241437   -1.72463959998196
H         -20.82171063014112    3.29865225910770   -3.03681365744152
H         -17.29558651811360    5.61081914214580   -1.08185530486989
H         -17.56902192959310    3.54699882556013   -0.16631002845795
H         -19.71842552395131   -1.21876675728649   -1.52239173210297
H         -17.67284934083529    0.56384064076292   -5.73950214214187
H         -20.56487399101716   -3.34764576121088   -3.12358431335372
