144
 SCF done       -244.787292421092          0.000901056472
C          -8.21056634707557   -0.61857040277413   -5.63224734037311
C          -6.90811795719065   -1.04463588417694   -5.61356284689593
C          -6.40013963781913   -2.06718986504890   -6.44211565280936
N          -5.92821608433924   -2.88648537461630   -7.09318309255005
C          -5.90045410777010   -0.55763602026413   -4.75385482263776
N          -5.02550858545341   -0.22989055059160   -4.08568426692382
C          -9.27372887886884   -1.18455361795993   -6.45078371969855
C         -10.49885216187906   -0.58059276484150   -6.08021954763701
C         -11.69505085722280   -0.90523451461373   -6.67250383517487
C         -11.68169696951264   -1.87465439880878   -7.68030150499520
C         -10.45141830089051   -2.47093628405179   -8.04750822461181
C          -9.24226590877010   -2.14215277259838   -7.44843767060787
S         -10.66110792925648   -3.63716085845330   -9.31880066324603
C         -12.37447396317413   -3.31372937021181   -9.33771234403690
C         -12.77163113204591   -2.38105542616782   -8.43989257550081
Br        -13.47665155735142   -4.23660018234960  -10.54230302567230
C         -10.26462793056247    0.41018238740326   -5.00911512846649
O         -11.11130383052046    1.10608420843792   -4.49381987993081
C          -8.79518210673632    0.41049707614780   -4.78487588421311
C          -8.07428403561315    1.33635366090736   -4.09387999588443
C          -8.51605556375262    2.33643867586137   -3.16591867141761
C          -7.72421581296480    3.49521550427460   -3.03566137849687
C          -8.09440382964077    4.47908350261915   -2.15626532450224
C          -9.26751175261531    4.33389482239072   -1.38810743850977
C         -10.02592972677690    3.17326276500211   -1.46908156001762
C          -9.64600585100725    2.18214723426548   -2.34888931967873
C          -9.46699257290650    5.53943820091451   -0.61853655597490
C          -8.42384693990046    6.43529647217506   -0.91277740513548
C          -7.42323964412409    5.79944746007051   -1.85489829747924
C          -6.11475580150952    5.60344920811218   -1.05136588864711
C          -5.02274085883465    4.79799828358146   -1.74259614240036
C          -7.19386077340062    6.63936438413076   -3.11931909350609
C          -8.49423153027453    6.94857418512258   -3.85259093446762
C          -8.38240970133342    7.67874491356766   -0.33342958199493
C          -9.39165098526956    8.05849304608594    0.56563073897553
C         -10.41594579650736    7.14496243091120    0.86128134225715
C         -10.46755591687337    5.89817335475034    0.27559629847800
C          -9.41027622110148    9.34291584025329    1.21816604634354
C          -8.63406336740297   10.40533451732104    0.91557413640909
C          -8.67071949118162   11.64031680119276    1.61582938160749
S          -7.66643003666957   12.97178525368792    1.08684745397629
C          -8.19077949913467   14.03020856850080    2.36518707833097
C          -9.11537449859489   13.35810770365253    3.16394134380778
C          -9.38168108428530   12.02951371389396    2.73402085373013
S         -10.54271353340214   11.23401679329010    3.75102778641535
C         -10.68357765919355   12.66792059429062    4.75556198884738
C         -11.62133350479595   12.57555229111330    5.87602033785580
O         -12.23329546050801   11.54789220650185    6.06901229426302
C         -11.76367880817491   13.81036237538257    6.73584550251842
C         -12.78203781703979   13.60416148698468    7.84747321537664
C          -9.87459933017058   13.67894870006085    4.31530075163015
F          -9.79143822070949   14.87841914104096    4.91196017667884
C          -7.71570099294888   15.35392784970422    2.52513779307726
C          -6.90523985193962   15.98397264859871    1.64578536805873
C          -6.39910038935263   17.32516406261797    1.77744683578173
C          -6.40197933091166   18.00804862831467    3.00455268361035
C          -5.92012118366420   19.29110008238190    3.06585095419363
C          -5.43586345026880   19.93402692466795    1.91269084758109
C          -5.40876656565625   19.26341927321134    0.69662017659987
C          -5.87661234415618   17.96747608734159    0.64397701452114
C          -5.05075890425876   21.28092424639423    2.26670177798758
C          -5.27420400064420   21.46502891987683    3.64537557711659
C          -5.76992010609175   20.18518613245233    4.27832371955933
C          -7.09273466852531   20.37937535541720    5.03256058342165
C          -8.20477491140904   20.89709886184433    4.12733907006872
C          -4.68850925186461   19.53654223500573    5.17615679892078
C          -4.22285960188915   20.37027462387463    6.36226247446066
C          -5.05899019385052   22.69265564346597    4.21909409382644
C          -4.60660063072172   23.76538224474123    3.42922277762237
C          -4.34843028157752   23.55293438213149    2.06549877594897
C          -4.56998217669387   22.32319070314614    1.48331577054928
C          -4.40906366261811   25.04335965651376    4.05404083099651
C          -4.33161800532539   26.23859796857149    3.41724041361825
C          -4.09590543982486   27.43697767339224    4.12516868296500
C          -3.95803819236250   28.70979865618605    3.65339664293969
C          -3.86928341296676   29.27645496297609    2.32504948345881
C          -3.38898997508544   28.68419743217525    1.18487501276065
C          -3.28574438706800   29.34359254572857   -0.05845378469588
N          -3.19519976466180   29.81616283901188   -1.10099966881453
C          -2.84225017586189   27.38831874090450    1.09489629239674
N          -2.35273236023366   26.36135279444098    0.93609943044358
C          -4.19515257338892   30.69788910425560    2.44118375320727
C          -4.25746602454569   31.04343355912303    3.81419498340534
C          -4.04645810131611   29.83021436092153    4.62654700241899
O          -3.99909536517210   29.74530963066372    5.83340143720048
C          -4.50831779091438   32.32285184712893    4.24598875832299
C          -4.72075417383449   33.30868567158808    3.27683349787573
C          -4.67558345583461   32.95123027722519    1.90844322039725
C          -4.41357268042017   31.65825126736559    1.47166083162523
S          -4.98326539649367   34.31827905270609    0.88074924659745
C          -5.15997826872928   35.33824477747427    2.28412243781437
C          -5.00000557227256   34.69055485460517    3.46231907517162
Br         -5.54330346908211   37.16065356438145    2.06087641618805
H         -12.61196669308137   -0.42618053427160   -6.36671915129276
H          -8.33121671617485   -2.61991656295760   -7.76761915499349
H         -13.79027241735083   -2.06114287456407   -8.31745761065103
H          -7.00770022282243    1.36204700076325   -4.28948544870192
H          -6.85332827084155    3.60531712178556   -3.66466227905511
H         -10.90485843448384    3.04806046247770   -0.85549047437909
H         -10.21433828304407    1.26909574530160   -2.39702927101640
H          -6.37124189733474    5.10921491635944   -0.11051544705366
H          -5.72672478760201    6.59471742287335   -0.80610749117689
H          -5.33900534343597    3.77161056392534   -1.90595665653388
H          -4.13778881286442    4.77898413701901   -1.11026177619984
H          -4.74409840669873    5.23997740051587   -2.69549277493590
H          -6.52568713999072    6.09967626652881   -3.79146270357552
H          -6.70326340198073    7.57356963879409   -2.83803487852867
H          -8.99463246029631    6.02966999151987   -4.15050589017112
H          -8.29095788260289    7.53461529073511   -4.74598726224735
H          -9.17068528546496    7.51453167949895   -3.21585932406345
H          -7.57396567998661    8.35745636144233   -0.55675094085483
H         -11.18432727337329    7.43919943153552    1.56136036173322
H         -11.26837441978672    5.21351366201393    0.51048130573725
H         -10.13259443605775    9.44585176528994    2.01725127900102
H          -7.93075810368830   10.36400883714085    0.09609184042535
H         -12.05698883911267   14.64594993938865    6.09515511905094
H         -10.78273933980241   14.05334361537209    7.15281091793314
H         -13.75621395027930   13.37081239632303    7.42524886634839
H         -12.86613055209992   14.50076578621145    8.45600117055965
H         -12.48314632511258   12.77297877629654    8.48104855712230
H          -8.06974111285590   15.86480938292920    3.40935657634852
H          -6.62749465827728   15.45607678597747    0.74093611956637
H          -6.76720058796098   17.51749139283809    3.89353542451861
H          -5.02576629558376   19.74532914084553   -0.19021547987766
H          -5.86227061223973   17.43174787819613   -0.29430238094198
H          -6.94001346310493   21.08675545312254    5.84853391165442
H          -7.39370818280587   19.42468262291170    5.46873173336455
H          -7.92938606564034   21.85482114509222    3.69071616195157
H          -9.12129034075674   21.02960984304690    4.69755294886953
H          -8.40083020553717   20.19656036183072    3.31859669406808
H          -3.82322026077596   19.31025587096935    4.54737109940940
H          -5.08724256840974   18.58721586394728    5.54068827700704
H          -3.72868113993711   21.27823218511729    6.02771789566240
H          -3.50844068368988   19.79431043149881    6.94655238162652
H          -5.05217716133186   20.63524928367201    7.01272090589150
H          -5.26721929075834   22.86546364357291    5.26461871233823
H          -3.94064619210264   24.35684797589350    1.47222450261466
H          -4.37397917992515   22.17432298988784    0.43234976247870
H          -4.32478303766802   25.03488487356450    5.13492424173543
H          -4.48160974526288   26.28593976715824    2.35103206364014
H          -4.07960819178236   27.36374960864845    5.20898096865239
H          -4.54135548653772   32.55583851465627    5.29870852993730
H          -4.39767289533679   31.43613239657389    0.41772152146936
H          -5.07598030998700   35.16512473127500    4.42356234239181
