116
 SCF done       -208.006878075496          0.000995863973
C          -9.77809183758549   -3.45383641234553   -5.83761785570320
C          -9.82845242398275   -4.77213839372609   -5.47186936390930
C         -10.21821140220047   -5.81754522592779   -6.33494531582984
N         -10.52625284125114   -6.70414771249196   -6.99544598668916
C          -9.53509298936206   -5.25062440456512   -4.17708712112311
N          -9.34170018415656   -5.69646273899105   -3.13705287413003
C         -10.18010998885185   -2.90160896810395   -7.12341352165842
C         -10.15349756097944   -1.48708295349037   -7.04262494024854
C         -10.49080027829980   -0.67959059592179   -8.10162516427975
C         -10.87227870657295   -1.29634882302891   -9.29753838651200
C         -10.88960795146714   -2.71041247520136   -9.37095195152599
C         -10.54909868513692   -3.52721965124264   -8.30052288569523
S         -11.37966400490613   -3.26254369854137  -10.94374895093648
C         -11.55493891395959   -1.61062387947339  -11.47338173209524
C         -11.26174417993297   -0.69091612647846  -10.52318695619005
Br        -12.10626312775092   -1.25598070427302  -13.23023633646940
C          -9.69682381988976   -1.07305721536236   -5.70033874627114
O          -9.52003603861168    0.06059889052654   -5.31388124345805
C          -9.40967022773614   -2.34260503426989   -4.97671811101987
C          -8.73300218309279   -2.41208811581913   -3.80228057192841
C          -8.40577034940897   -1.27969309876806   -2.97566393397303
C          -7.09736554576086   -1.11557648905028   -2.60162810973083
S          -6.75568477751392    0.39311755910524   -1.87954410254575
C          -8.43893564121954    0.82286013896971   -1.97449831014214
C          -9.23600869474964   -0.17833940944244   -2.54600012535448
C         -10.64404174127307   -0.01749761201607   -2.55688596270875
C         -11.51640333591403   -1.19450958161820   -2.90912028064399
C         -11.33638821007604   -2.33734742863438   -1.90774030483981
C         -11.20112261870754    1.19082945031240   -2.15430923503928
C         -12.68171053857145    1.44877923030652   -2.25420641533985
C         -13.42831505728921    0.99286360480094   -0.99814183710368
C         -10.38144644663990    2.22344430729007   -1.63976862968541
C         -10.71713245010066    3.55143372946027   -1.18308424504568
C          -9.61218436734803    4.24997473436172   -0.79844237047045
S          -8.13473328558261    3.37819424692853   -0.90910045348661
C          -8.99664363735973    2.01327261570414   -1.54342628389243
C         -12.02683161044247    4.17403248484935   -1.06848452220703
C         -12.26267685270305    5.42336442988391   -1.49788358921185
C         -13.51467557396563    6.11976473595324   -1.39405039853697
S         -13.95812234650733    7.10511270584173   -2.75469329519653
C         -15.50414599439929    7.42692582713873   -2.07257471489632
C         -15.68371972708218    6.83608699851101   -0.86768844634509
C         -16.93750988355834    6.97761605813557   -0.06984188353798
C         -14.52647937905959    6.09370494517733   -0.43757799070750
C         -14.48047514213371    5.55592361706069    0.88585015870120
C         -13.38391027667898    5.20073586443984    1.60811442528757
C         -13.40911556038509    4.76850211998770    2.95586407868226
C         -14.49144459081264    4.79114515405928    3.79497808609655
C         -14.45914564504680    4.36150806091428    5.12449137615501
C         -15.51764271000990    4.49083539297049    5.99642267764078
C         -15.57709093351860    4.08517303544977    7.34728949505783
C         -16.75340433525160    4.38522565584580    7.97156671488149
C         -17.68248546888205    5.05191064594102    7.14587336944148
S         -17.03042622802986    5.26476446073969    5.54426267786796
C         -18.93913970682913    5.52993885738989    7.48848688552608
C         -19.58907637601992    5.44825986856843    8.73414262245156
C         -20.81312672112885    6.05612227191062    8.75543787865189
C         -21.18376123977004    6.64905684583234    7.53070262072090
S         -19.93795107877831    6.38900705106985    6.33627944362810
C         -22.35139254611765    7.34785904680737    7.27247019305513
C         -22.62921732815210    7.94280675189952    6.05112731564318
C         -23.74026132618540    8.67477843515054    5.67877099493246
C         -25.02746513795153    8.85894058627612    6.28512238236734
C         -25.68831957291602    7.99573375379327    7.13111666776070
C         -26.96907135551547    8.24130366622778    7.66063976403070
N         -28.00092112882361    8.39739769473758    8.14197965769365
C         -25.22904189117640    6.71318772012251    7.48548011999864
N         -24.93932984629507    5.63987813230097    7.77632964836972
C         -25.63088381251677   10.04713819454727    5.67685322637458
C         -24.82315190271502   10.45604389521834    4.58731330431552
C         -23.63698693547736    9.57537982680026    4.51277888263280
O         -22.74491617927911    9.60993011864433    3.69007143845849
C         -25.14236685436071   11.52768225847772    3.79180472128827
C         -26.30827367900778   12.24101509067336    4.09418348717277
C         -27.09911172534623   11.83442032589695    5.19254497106256
C         -26.78169358262011   10.74119818306943    5.99174491786440
S         -28.48476873376570   12.86370684553339    5.39844906821243
C         -27.98893661236598   13.81160920439296    4.02143784143024
C         -26.84631334457121   13.38211020322577    3.43694444412744
Br        -29.02643194378813   15.28108109223927    3.48669865277318
H         -10.46109104185278    0.39477131134628   -8.00929168050216
H         -10.57039673280259   -4.59914516033686   -8.40577972972429
H         -11.31560669885966    0.37099997422337  -10.67930661471283
H          -8.29071124462643   -3.35569163539637   -3.50601419388086
H          -6.28982732971846   -1.79190831525508   -2.80939024914744
H         -11.29073784630811   -1.55444809796045   -3.91341751205318
H         -12.56441012434235   -0.90773099300931   -2.90568979416300
H         -10.33546217760168   -2.75864776955172   -1.95529777774624
H         -12.04654701411670   -3.13367847947542   -2.11976531803820
H         -11.50706218601107   -1.98137558341775   -0.89404590195546
H         -13.09641189090361    0.94882746347264   -3.13017500578768
H         -12.83665845021286    2.51764243848334   -2.40480415506253
H         -13.38599888845716   -0.08828015539393   -0.89358449860555
H         -14.47289006911137    1.29283472825707   -1.04925900260263
H         -12.98380866512155    1.42935130990649   -0.10611701292348
H          -9.59411144995932    5.24870898625703   -0.40659876506901
H         -12.80752217121171    3.62432115504928   -0.56409312464111
H         -11.50173933769442    5.93116117602588   -2.07787626131028
H         -16.19537029450845    8.04322556582012   -2.61287318460813
H         -17.66851875468714    7.55935072634514   -0.62493116293073
H         -16.73935430532282    7.48438492967109    0.87388989507088
H         -17.36805433096821    6.00087075919052    0.14823231343241
H         -15.44323208152287    5.50161774360414    1.37352019579183
H         -12.40877973944430    5.25779802480503    1.14639483040915
H         -12.46843252343207    4.41939762294374    3.36400212922019
H         -15.43428996556356    5.18911981410646    3.44459796304784
H         -13.55134345783358    3.91248784121303    5.50645487093855
H         -14.74972143198409    3.58558901972096    7.81985950642869
H         -16.96954654697642    4.15217412920520    8.99841430589648
H         -19.14666348356675    4.95247818584250    9.57938827704779
H         -21.46006918550662    6.09378196624490    9.61349762974203
H         -23.04217730949246    7.44616052647298    8.09639101865414
H         -21.84100203810929    7.92354033136337    5.30309593562733
H         -24.51228738963768   11.81122208353032    2.96338738676525
H         -27.41552783099289   10.47319532842579    6.82058325894023
H         -26.39847915210046   13.84901317177145    2.57871067383174
