104
 SCF done       -190.539782166763          0.000468651123
C          -4.59032247269521    7.40441638106010   -3.76922289019736
C          -3.66506665529969    6.68970279537493   -4.48148629127165
C          -2.84621470400953    7.24132029914202   -5.48832476336985
N          -2.15263142295681    7.64443449466977   -6.30921119891962
C          -3.44587770265043    5.30421870135761   -4.32630258500013
N          -3.23747548794203    4.17713904157376   -4.26490044608452
C          -4.93606123792531    8.80570414004757   -3.96630774380053
C          -6.06799126180983    9.11184958644595   -3.17149584374796
C          -6.63224785445949   10.36359114955913   -3.13646448787712
C          -6.04745336411442   11.36284116042465   -3.92067004882310
C          -4.91531359344732   11.04948392065735   -4.71043610415039
C          -4.34743798584841    9.78229413017913   -4.74912134146471
S          -4.34589095910118   12.43688193400610   -5.58888852365957
C          -5.61724400088224   13.40497320342994   -4.89149704581399
C          -6.42839710533784   12.72659059985510   -4.04605463424443
Br         -5.74819521864305   15.22057694339888   -5.33863937336157
C          -6.47593956778316    7.91796639152936   -2.40266703863026
O          -7.38172527742824    7.85111627005898   -1.60292608309234
C          -5.47346119177677    6.87231256596688   -2.74637821723091
C          -5.30714886382049    5.72480251180575   -2.03910823110117
C          -6.22376752512003    5.26092515117396   -1.03095253314968
C          -5.72675256141648    4.99277107491400    0.21823309835023
S          -6.92310186347048    4.78412804821881    1.41860852732343
C          -8.16796640532514    4.95580179897237    0.21461132262936
C          -7.66400860327850    5.15963761941371   -1.07734513008640
C          -8.55520131160706    5.16451014984861   -2.17923488948149
C          -7.99713417063380    5.13110862716236   -3.57839364690440
C          -7.20652981953715    3.84662802523240   -3.83419996632527
C          -9.92563668539935    5.11534535305425   -1.95390794473063
C         -10.92145617259783    5.19275055957808   -3.08002720814772
C         -11.21534972711754    3.81781850030912   -3.68355939689814
C         -10.42691393368286    4.99775671259145   -0.63659018044879
C         -11.78752152427687    4.98886302759700   -0.16027245973844
C         -11.85262020288208    4.93329520538591    1.19772994817587
S         -10.32487656285772    4.81878711476555    1.98134845103758
C          -9.53211784286971    4.91168665352474    0.44122389303411
C         -13.01445979640495    4.97001990764043   -0.94356627008540
C         -14.00837560563975    5.85773866873308   -0.76980247041419
C         -15.25994407351283    5.74689178015330   -1.44621307615180
O         -16.16793346882940    6.75246880128467   -1.34135684323288
C         -15.81798870240761    4.73199305120030   -2.19477404624577
C         -15.57903688228113    3.40803966478147   -2.76695793375699
O         -14.59711787020778    2.70436122053538   -2.75379074341677
N         -16.77944332982887    3.09683575207835   -3.39112129437607
C         -17.77382994339610    4.07919033358256   -3.29920933047952
O         -18.87657448704842    3.98329899595924   -3.77640762398473
C         -17.13711994357990    5.13874914147750   -2.52786380054553
C         -17.31781122516593    6.40345023156653   -1.99178847109448
C         -18.41450177650740    7.28942526072762   -2.04304151418236
C         -18.32076544851267    8.60829180685110   -1.69988271161606
C         -19.39264695914179    9.50873178061520   -1.71052082481290
C         -19.25606156420983   10.86782769728616   -1.54688406212925
C         -20.28923460248064   11.83038800192034   -1.46896382804020
C         -19.85218605143362   13.11661775377256   -1.35025402834228
C         -18.44764081942144   13.24530856008897   -1.35812058675066
S         -17.69548184736248   11.66745257247629   -1.46421740016108
C         -17.70534782739547   14.41229892349674   -1.35098793488044
C         -18.16360499492196   15.73994303882839   -1.23226943343883
C         -17.17715043485531   16.67672781537546   -1.32095782923911
C         -15.87953036996879   16.15322391783610   -1.53361799876764
S         -15.96810887235993   14.39903388700972   -1.56479694300990
C         -14.75792297173617   16.92614312461291   -1.72370869724572
C         -13.43742826408403   16.58911675992477   -2.03228547325679
S         -12.32339401785242   17.92969836118868   -2.29749996453105
C         -10.96671850270624   16.92339507848055   -2.69828603353325
C         -11.35503866409865   15.58778671385970   -2.61255052684101
C         -12.72173343424947   15.40522774085329   -2.24036720182876
N         -12.91816077269994   14.06654427376741   -2.19688089379200
N         -11.80190809961075   13.39486609510791   -2.50904178337199
C         -10.86036006785946   14.26680777207484   -2.76054025996506
C          -9.72281485088875   17.52438612354395   -3.05209479968746
C          -8.63239533180622   16.86035394129868   -3.44594482110812
H          -7.49516057345155   10.56476658225189   -2.52113509913173
H          -3.47961693209035    9.59222448254950   -5.35864492838872
H          -7.25765278192340   13.16610351484749   -3.52314958325965
H          -4.37341170126865    5.18199410125474   -2.12477240983358
H          -4.69241267534802    5.00992995154521    0.50570116900418
H          -7.35405912880376    5.99473729659389   -3.75392648019080
H          -8.80038844616576    5.18199528402669   -4.30825836951203
H          -6.31404523205787    3.79454803833466   -3.21592204784215
H          -6.89655796406732    3.80061718108012   -4.87592477550538
H          -7.82154497125360    2.97628505487454   -3.61651634672727
H         -10.56544948900248    5.87029384386802   -3.85761405974192
H         -11.84904459695818    5.61755693020617   -2.69337858545046
H         -10.32463127862359    3.39414529533518   -4.14049904339672
H         -11.98860772891919    3.90001673922477   -4.44359910302671
H         -11.56380961083268    3.12756789618588   -2.91986317388393
H         -12.74492746135732    4.89909957788562    1.79216941415362
H         -13.15039746617890    4.14513236455780   -1.63066747175227
H         -13.89396036432071    6.70967343904708   -0.11466848602970
H         -16.92580315995330    2.22708792607229   -3.88292454471756
H         -19.33825448090068    6.87399802690835   -2.41715542869597
H         -17.34965230759915    8.99536395067856   -1.41601722625403
H         -20.39147136327587    9.12254974965623   -1.86321323198113
H         -21.32471823896726   11.54079372211705   -1.50001761455068
H         -20.50070065299172   13.97142302505056   -1.28006947326564
H         -19.20297221386715   15.96958686048762   -1.08276386946151
H         -17.34362736605727   17.73755352895125   -1.25603516524031
H         -14.93563148021890   17.99340497374891   -1.65615529493939
H         -13.75658078757116   13.55747385781862   -1.97206262778716
H          -9.88020358891304   13.93361229513280   -3.03210399221778
H          -9.70379158970611   18.60486606571594   -2.99398910937262
H          -8.62148149293094   15.78919747138536   -3.52999141268473
H          -7.72624015610272   17.37507658066776   -3.70878316520207
