89
 SCF done       -166.600502500045          0.000916877393
C          -6.70784687913050   -2.58691064904916    3.13901261324574
C          -5.75686223099116   -3.49147530483753    2.73205300694849
C          -5.78460196406494   -4.86399874078178    3.04899470998016
N          -5.75846737150220   -5.99179659857992    3.26672113689732
C          -4.61826156376160   -3.18478817949374    1.96000610741778
N          -3.65874887326321   -3.01965436208567    1.34930660711734
C          -7.84434994286859   -2.88817390301088    4.00287978851955
C          -8.55090579440684   -1.68787691007299    4.25515202941049
C          -9.67728795160170   -1.64054966344523    5.03823449881020
C         -10.12624159442220   -2.83718347221209    5.60822186297102
C          -9.41302903011985   -4.03114147747295    5.35281382797459
C          -8.27555373605080   -4.07939785897986    4.55568757572495
S         -10.14013196916717   -5.39298074636510    6.15271359760551
C         -11.37408876095057   -4.35200167966654    6.80963803477722
C         -11.25112584618504   -3.05234866273342    6.45118587247554
Br        -12.70956789271671   -5.07907343540911    7.90931177509247
C          -7.89131735358529   -0.56869078509778    3.54901321505455
O          -8.28708330555878    0.57791896439676    3.50423377022452
C          -6.73190846645317   -1.16909196402529    2.84974366296914
C          -5.95471037265007   -0.53089064128525    1.91888211558604
C          -5.86667649946355    0.86534673870913    1.65720590215921
C          -5.68020516223737    1.26653888100598    0.33024633678129
C          -5.74919002977817    2.58686759646757   -0.05266347085952
C          -5.96750858363587    3.61177402665614    0.87440073604716
C          -6.01738889992598    3.24560071549918    2.26763151053750
C          -5.93888820227751    1.88465322624684    2.65751392981452
C          -5.84410311125509    1.61937851077048    4.03600268660214
C          -5.93790652883261    2.64917969704309    4.93578053242539
C          -6.10942299538518    3.94718105606733    4.44136877882747
N          -6.11752662784701    4.23541650564177    3.16770160748527
C          -6.11546115611563    4.97925708787459    0.55255891242004
C          -6.13703473141980    5.61011803004247   -0.66721919974887
C          -6.29130490628685    7.01183065483586   -0.83500221992771
C          -6.29649605087765    7.43706240549170   -2.12920913912882
C          -6.15095771997946    6.39596757478622   -3.06921185201058
S          -5.99969375980463    4.85899806461318   -2.24633118881273
C          -6.11625793426663    6.46610124539888   -4.44891948021136
C          -6.22583600819447    7.59926269440062   -5.28345267786348
C          -6.13872555996672    7.30910383261373   -6.61120957918497
C          -5.97467464884071    5.93076333571979   -6.90490124674307
S          -5.91466748578653    5.01985634049799   -5.41112714958078
C          -5.79443616362322    5.41185803052287   -8.16411614978415
C          -5.66813197979398    4.07331219238709   -8.56972872194431
S          -4.85666305366786    3.76014782232743  -10.10157543427941
C          -5.00771601199167    2.02714763534845   -9.93214667460478
C          -5.69083166588265    1.73619824425881   -8.76390970339295
C          -6.06454234014915    2.86498534152768   -8.01089938390421
S          -7.13250077991588    2.57818626225550   -6.65454008856560
C          -6.72728698325646    0.80775963146887   -6.53803965964400
S          -6.18924871016597    0.16998005187776   -8.15944299869013
C          -4.45919447228014    1.18452122983093  -10.92639704341289
C          -4.51034654788122   -0.17120989260785  -10.91193128983662
C          -3.93813650912055   -0.99274773517249  -11.91120012008927
O          -4.03838864570445   -2.34230099671441  -11.78674483939336
C          -3.42154779740116   -2.92367336789259  -12.84552093038184
C          -2.91370436499227   -1.93020226973895  -13.67187025515076
C          -3.24008281540174   -0.69472968369478  -13.07932668072494
O          -2.93407301824805    0.53145275002056  -13.55623726715850
O          -2.22208499226822   -2.03854859876707  -14.84098411445074
C          -3.36881200463856   -4.34131264937781  -12.97384774863604
C          -3.90194433880999   -5.20150794457445  -12.08164141702350
C          -3.84260377414509   -6.62709572774181  -12.21980527756102
C          -4.36780446198101   -7.47559596063503  -11.33528243170537
H         -10.19457225721352   -0.70924644966997    5.20801545949338
H          -7.77113943580777   -5.01599177768535    4.38713329160564
H         -11.92454296924597   -2.27609905705984    6.76555808833601
H          -5.39288636703204   -1.15519139211396    1.23337461558836
H          -5.54628751468648    0.50533598261674   -0.42558180363746
H          -5.64507463347321    2.82527560786272   -1.09857629503471
H          -5.67314802022891    0.60838485793882    4.37657091518057
H          -5.86945475796584    2.47386762536415    5.99819114528846
H          -6.21008209519640    4.78894170935090    5.11510140061938
H          -6.23748882887218    5.62115609622097    1.41614686286556
H          -6.39486036575104    7.66078324177576    0.01651924545825
H          -6.40385706507510    8.46374347422566   -2.43043846768956
H          -6.36629072141242    8.58832268191157   -4.88603427788450
H          -6.19688539943617    8.04027525886601   -7.39828064689338
H          -5.66770066920989    6.13935601345020   -8.95681818321009
H          -5.91790662069189    0.67576472837946   -5.81900783391094
H          -7.61188177615397    0.26296563273884   -6.21666123499331
H          -3.96280098325049    1.68157494444832  -11.74674474937764
H          -5.00159322106594   -0.70291367796033  -10.11010656253559
H          -2.44816107081064    0.41424748200073  -14.38369265336118
H          -2.10605893427469   -2.96847326210927  -15.06158315311270
H          -2.86173031085189   -4.72152522833541  -13.85236577460211
H          -4.40363031877979   -4.80517736249625  -11.21057528721921
H          -3.33782409527907   -7.00669314672878  -13.09965536147911
H          -4.87435579681640   -7.12303585155828  -10.45232444500808
H          -4.30833683888981   -8.54216464760536  -11.46336560165241
