87
 SCF done       -179.598596559166          0.000905650706
C          -4.66717628213135    4.27182011107060   -9.27588426652563
C          -3.70635834577749    4.97277870857300   -8.58285671418320
C          -3.54559759678399    6.36898118309550   -8.64455041311255
N          -3.38671744483296    7.50643364793935   -8.61027940337381
C          -2.85892160666009    4.40760937233949   -7.61774163566184
N          -2.16826951556776    4.04117884240874   -6.77252334182626
C          -5.66699151938400    4.84760873571001  -10.15789729985934
C          -6.63072128860627    3.85232447719770  -10.45907553780204
C          -7.70900825006224    4.08992207390679  -11.27453672287896
C          -7.84373084701194    5.37202992085251  -11.82026691408526
C          -6.87676985513399    6.36006342756284  -11.51355123101433
C          -5.78626877945337    6.11956660680449  -10.68715192764849
S          -7.23266056827303    7.86708616148572  -12.30127094276218
C          -8.65284370122652    7.15949412695755  -13.02536218125508
C          -8.85374327756407    5.86197655620828  -12.69103186600794
Br         -9.73446814114234    8.20047891361641  -14.14948258241097
C          -6.25505117223986    2.59132852389782   -9.79322904707465
O          -6.83291224957309    1.52646809989481   -9.87713082418842
C          -4.97583795192577    2.87256731541337   -9.10700958629744
C          -4.15326400935110    1.91902261076056   -8.57127554784972
N          -4.53136342895597    0.68847010814332   -8.16118236189743
C          -5.80183868910807    0.28954451732439   -7.80601496923025
S          -6.31242095188952   -1.31126883877065   -8.23162666278868
C          -7.86378905584050   -0.98942201706343   -7.54143818184835
N          -8.82249038605186   -2.01245994125688   -7.56664497283260
O          -9.91356691111438   -1.77527190481937   -7.08551851588175
O          -8.48261161306509   -3.06936445298997   -8.06815426039600
C          -7.97227792092225    0.27111873355775   -7.01968818258584
C          -6.78343361240384    1.01664592177896   -7.13321373732006
C          -6.64620005076722    2.34127696660105   -6.55780535721934
C          -5.50447697480396    2.81669965198735   -6.04024343105401
C          -5.25048779291991    4.11312660901185   -5.45726378108644
C          -5.73596242478623    5.31115029764010   -5.80923679068596
C          -6.74198474034053    5.55846082150201   -6.88535760950520
C          -5.21848798109253    6.54281884898715   -5.10516234704650
N          -3.77118601112892    6.58118168980267   -5.10263664379180
C          -3.05007042665887    7.58922477396247   -4.59796304832409
C          -3.55158332738647    8.68968886352022   -3.96162964814946
C          -2.73109537319220    9.70193097829562   -3.44802200598286
C          -3.19059270366995   10.81616025498118   -2.78943491136937
C          -2.42640322677300   11.87187462804112   -2.24506564964162
C          -3.16367317277339   12.84740945810896   -1.64214296672988
C          -4.55650473310638   12.61439761126293   -1.67630583953206
S          -4.90318269529263   11.11754696059782   -2.49940559708112
C          -5.56373170049573   13.40801926494327   -1.15565116356106
C          -5.44476320510250   14.63664691885712   -0.47619704177870
C          -6.63729999689481   15.16934164029367   -0.08746083738790
C          -7.76778518518479   14.38861712697924   -0.43791332719729
S          -7.25443285278649   12.94854317820769   -1.28580765609941
C          -9.07244103158178   14.71330671794289   -0.15519153853802
C         -10.22112461309840   13.97271671747802   -0.48154616111705
S         -10.16489963771871   12.45432981797869   -1.33575317059710
C         -11.86842409998467   12.29827631758398   -1.29260537140606
C         -12.47193877458206   13.34746312681430   -0.65887350730534
C         -11.54588647397320   14.30967806221910   -0.19099963630284
C         -11.86832372460950   15.56589210743795    0.54374743586701
F         -11.41799022798344   16.66440166724405   -0.10319565715251
F         -13.16701479997706   15.76697880845449    0.75385192226502
F         -11.28026591071607   15.60760934057468    1.76105918310244
C         -13.96124166709374   13.40912314689112   -0.51288180319862
F         -14.54815533420990   12.33717203493317   -1.07640060638588
F         -14.36490673495729   13.41689786597354    0.76596225139612
F         -14.50486985336811   14.47936826423258   -1.10940697218999
H          -8.42604070817014    3.31292624674252  -11.48782832834085
H          -5.06823476654272    6.89867098109489  -10.49080037403009
H          -9.67893382151772    5.27278304598413  -13.04681391872973
H          -3.09642725341851    2.12658968127748   -8.45074172570738
H          -3.82575584078643   -0.03769631635789   -8.15868302004504
H          -8.87002284168756    0.62959028814045   -6.54907388606661
H          -7.56373826255833    2.90642323299251   -6.48496249056444
H          -4.64464342616081    2.15852643791329   -5.99919245429176
H          -4.49594831387175    4.09025314916140   -4.67915224166054
H          -6.45321970036182    6.42438373310070   -7.48088259856836
H          -7.71592008732052    5.77285931726718   -6.44427532637729
H          -6.84604013005152    4.69707503375206   -7.53894236995521
H          -5.57675470493591    6.55117617642833   -4.06599317222022
H          -5.60130118884496    7.44498072331890   -5.59530209961475
H          -3.28973854650031    5.81774062800457   -5.55318024034572
H          -1.97980594334616    7.48479671599911   -4.71452283924716
H          -4.61734640100040    8.80658851637402   -3.83371357898638
H          -1.66009168915092    9.60755666547768   -3.57272200722409
H          -1.35271836504010   11.87912336617334   -2.31528834037062
H          -2.74626201914368   13.72130368373738   -1.17593127708455
H          -4.49041640073278   15.09646326558645   -0.29216172640537
H          -6.74688456804711   16.09921578466371    0.44107459759559
H          -9.22375794313568   15.64139718395585    0.37638319450480
H         -12.34604464660549   11.44678037802610   -1.73272466093844
