137
 SCF done       -231.610926466115          0.000998775819
C           2.89757912134975    0.70744185899682    0.99779919896148
C           3.77469097968678    1.52675195965845    1.66342139685354
C           4.53797178506377    1.12619598571337    2.77798627741237
N           5.18652852171180    0.84986536924799    3.68459183690673
C           4.00491826089162    2.88134452886056    1.34695029682711
N           4.22848507852522    3.99302536851667    1.16335006108584
C           2.56190013630943   -0.66110194021334    1.36865346830334
C           1.52785536858848   -1.11778111675789    0.51617343740548
C           0.98737500898218   -2.37638265691704    0.61646756143715
C           1.48908254875047   -3.22518537613122    1.60877008220607
C           2.52456238530234   -2.76127765848925    2.45378607267291
C           3.07306205978892   -1.48867586027878    2.35087260942879
S           3.00088280981148   -3.97293557672457    3.60510697281205
C           1.81674825158821   -5.06998832404343    2.94569783177451
C           1.10111805063556   -4.55815847063366    1.91664064451952
Br          1.63667740261055   -6.78788707099234    3.67783425950083
C           1.16978551356448   -0.05388767211631   -0.44323274997759
O           0.36136358648359   -0.15597952199677   -1.34430927617856
C           2.07797032040110    1.07656445881506   -0.13867963229421
C           2.27823826128067    2.15535981037108   -0.95252571863126
C           1.39860090066742    2.59968978865498   -1.98960706846867
C           0.02764510859534    2.54334007091218   -1.83495808235240
C          -0.81887464571647    2.98352157196533   -2.86801136305147
C          -2.20616820122846    3.03597546448799   -2.97407462389936
C          -3.28138356446148    2.73082666449832   -1.98565454644480
C          -3.50727168448540    1.21486081902349   -1.77920623961904
N          -2.47551677220067    0.61133141106539   -0.96073674496296
C          -3.06301370724359    3.43961969328593   -0.63982839626054
N          -3.04885254511481    4.87858081143695   -0.85194770273557
C          -2.49322916725713    3.48236217504910   -4.32063777544820
C          -3.66484542812853    3.64208195944917   -4.96189760537144
C          -3.71798896312989    4.02394620260427   -6.40263613222223
C          -2.39469595284698    4.37502457005853   -6.99974325411855
C          -1.23278827430443    4.22652166653590   -6.33910488604610
C          -1.22371004779504    3.74721529145131   -5.00494093894945
C          -0.21488966438889    3.45290276584164   -4.11445215527286
C           1.19380182888810    3.55210877439483   -4.21906523998759
C           1.97019422175839    3.16579261022885   -3.17916125202875
C          -4.76021519134718    5.08667449463676   -6.63437001117246
C          -6.08053951232617    4.83118596491347   -6.61541273419400
C          -7.16497831881520    5.73701547372761   -6.85501631863274
C          -8.39120103807527    5.17010919372070   -6.79263377182119
C          -8.38295199087447    3.78583884867540   -6.46731449073439
S          -6.73331149311452    3.21813878478723   -6.28642250200151
C          -9.44616503961225    2.94525901582087   -6.26159508704101
C         -10.83325682415043    3.20898683515309   -6.40280931172154
C         -11.62597350540640    2.15219632645515   -6.10183633502150
C         -10.93250789327799    0.97691847917363   -5.67881620793335
S          -9.20199076580348    1.29550458876663   -5.71796764952207
C         -11.53585923939544   -0.19567442656408   -5.33695295273628
C         -10.96537445838364   -1.41787130620182   -4.85303689602540
C         -11.78323437386118   -2.56512909056635   -4.81870420336329
C         -11.27600777441309   -3.75557396269156   -4.36496620575775
C          -9.94841589137749   -3.83577795258819   -3.91162151564507
C          -9.13512026356484   -2.70988224829434   -3.91686078978088
C          -9.64385693865728   -1.52013928313758   -4.38754514399748
C          -9.68799220774136   -5.19134550407116   -3.49853777946528
C         -10.84244636360144   -5.96879614793595   -3.72349344861499
C         -11.96639790885916   -5.10426823509882   -4.25649406392176
C         -13.08904700390050   -4.94028542475278   -3.20432794327430
C         -13.86989789067946   -6.19121860116987   -2.82654203597655
C         -12.49576599145391   -5.49576379548328   -5.65693052557595
C         -12.55071113490252   -6.98075006777321   -5.99458069164746
C         -10.82132747117452   -7.30722661105883   -3.41684066585791
C          -9.67473707382390   -7.88490167358661   -2.84162668227196
C          -8.54177448612013   -7.08965468069353   -2.62040288518143
C          -8.53928938195474   -5.75433041590459   -2.95568599671538
C          -9.74071665805076   -9.27153177292954   -2.47197372629169
C          -8.90688155855126   -9.91743435057037   -1.62129573013587
C          -8.98942135839592  -11.28819568897430   -1.27257474350872
C         -10.01231411480653  -12.18811531949795   -1.36701136032992
C         -11.43411951644627  -12.08461469473756   -1.60851793918578
C         -12.25813739558705  -11.03041018019232   -1.30180589634581
C         -13.64968695006098  -11.02433234694826   -1.52190285126763
N         -14.78107553999061  -10.94115054025129   -1.70143104676990
C         -11.83018570782106   -9.84211827441210   -0.67860480526878
N         -11.55033735972825   -8.85670353888880   -0.16018253852495
C         -11.90465270752584  -13.40817928204153   -2.01280561573321
C         -10.86554917831450  -14.34657844849018   -1.79655817765295
C          -9.66787573578056  -13.63477293782683   -1.30816335652962
O          -8.60892417988961  -14.11432808285163   -0.97143069633103
C         -11.01819654190228  -15.68879521345453   -2.04356178566071
C         -12.25127833268165  -16.12418605297962   -2.54070542527746
C         -13.27696509756190  -15.17693011146745   -2.77034864923823
C         -13.12577633165747  -13.82001320513893   -2.51084942289399
S         -14.71124879420690  -15.92859057090672   -3.40076491180430
C         -13.92655496791465  -17.48473470648203   -3.34130078626624
C         -12.65539619774984  -17.44550108784211   -2.87704856694635
Br        -14.85870161496256  -19.01253829020039   -3.90311867272657
H           0.20105821536771   -2.69682623320549   -0.04885156135111
H           3.86525668134527   -1.18342328525098    3.01384223914451
H           0.33183597726737   -5.09715793528179    1.39445151529806
H           3.20694334662698    2.70565237157877   -0.85392287803511
H          -0.38995341763233    2.19040020185244   -0.90640712894197
H          -4.21472017858791    3.12898853146123   -2.39606114743993
H          -3.61352199315127    0.74840863323766   -2.77417618984685
H          -4.45777696188355    1.09580955222451   -1.24996495063649
H          -1.61118894638666    0.50007320807132   -1.48273421951737
H          -2.76295143923152   -0.31434099959678   -0.66466253656244
H          -2.15584530062919    3.05095163571523   -0.16089797849434
H          -3.90863059707152    3.20873585805672    0.01374669443620
H          -2.26365545840245    5.13226658194159   -1.44401906457036
H          -2.94018359407956    5.36310583228153    0.03217668384460
H          -4.61608098361916    3.46526518950196   -4.48065281228256
H          -4.08843382187582    3.11671809093713   -6.91858997440622
H          -2.41760419469921    4.73699582975528   -8.01663649537727
H          -0.29373826244562    4.47048703997198   -6.81427706504825
H           1.63183822377694    3.93961376076722   -5.12708163048073
H           3.04638275023100    3.23778612880309   -3.23689618979274
H          -4.41078085313402    6.09226694286256   -6.80919718590083
H          -6.97735479720772    6.77303036652820   -7.07415697868354
H          -9.31364181673929    5.69898823256243   -6.95511871415807
H         -11.19534122394669    4.16653825486419   -6.73232109868466
H         -12.70064613858592    2.16591837591142   -6.15547381413355
H         -12.61287667087212   -0.20898252138164   -5.46020562091775
H         -12.80316569752847   -2.49512484117783   -5.16911515950304
H          -8.11902529204451   -2.76276239193987   -3.55628685024099
H          -9.01617269928876   -0.64464521395053   -4.37071283022653
H         -13.78702278839182   -4.19087384273627   -3.58590562362219
H         -12.63242568520673   -4.53051078685272   -2.29903111713802
H         -14.34192696567525   -6.64356993996614   -3.69391761983737
H         -14.65456939935989   -5.92048800074044   -2.12299139540451
H         -13.23047106241988   -6.92262073041320   -2.34064348102387
H         -11.85089179628673   -5.01592782587105   -6.39867519621594
H         -13.49415029948707   -5.06776238578699   -5.76963798018085
H         -12.94504563871092   -7.09904560236472   -7.00239539010238
H         -13.19699160255116   -7.52927369598029   -5.31621646311276
H         -11.55683134159944   -7.42044475104001   -5.96788636996419
H         -11.68261954069639   -7.93549644206649   -3.57701914109192
H          -7.65133155409846   -7.53359925287888   -2.20335276100831
H          -7.65993496986985   -5.14927872297435   -2.79393842268191
H         -10.54343817224318   -9.83253172577232   -2.93491701552443
H          -8.06659779003415   -9.38359823857761   -1.19986209144163
H          -8.06195996317766  -11.73507506437466   -0.92300498269445
H         -10.21244279072216  -16.38182392510175   -1.85937730020056
H         -13.93488732889629  -13.13600820682995   -2.70663012259348
H         -12.02634179225088  -18.31089234069047   -2.77540365486156
