84
 SCF done       -180.591352067010          0.000686081253
C         -13.59222413901154    7.53099092480174    0.40307170795944
C         -14.31178239290665    7.09074610510813    1.48282347709500
C         -15.48489124737233    7.71037225878940    1.96108235033948
N         -16.44153021556517    8.17383391488796    2.39305046500707
C         -13.96329954039271    5.95937166809657    2.24833930092312
N         -13.71186353545220    5.04095246199169    2.88935105791398
C         -13.90415479446709    8.69430334679921   -0.42260159006601
C         -12.90514204152253    8.83031128511022   -1.42352609726485
C         -12.89863949751578    9.86154465179904   -2.33133910784110
C         -13.94402780466172   10.78694493304629   -2.26912964004845
C         -14.95828163810871   10.62566856419029   -1.29437573337284
C         -14.94914673646315    9.59647841245009   -0.35857820675735
S         -16.16676514964720   11.86449655055381   -1.42634188073530
C         -15.29889493707404   12.57653957860916   -2.76269360618559
C         -14.16134053101310   11.92160925400099   -3.09574363013742
Br        -15.99945994979384   14.08961797816051   -3.61847388989099
C         -11.95344344158061    7.72737854383946   -1.29861880214569
O         -10.98498116460173    7.48510490077125   -2.01290828726258
C         -12.38780156798216    6.93744563595660   -0.13669859295060
C         -11.67910888405287    5.83959377507824    0.27920923527219
N         -10.60797146867889    5.44367434231648   -0.42489941707703
C          -9.76910654850111    4.42057617772800   -0.15582137431069
S          -9.82500350461613    3.54778387445786    1.34091311570070
C          -8.48799475561925    2.58216012513880    0.79734883632598
N          -8.01066621229934    1.58111527414202    1.66020304829669
O          -7.07421614402172    0.90913242028644    1.27554892974897
O          -8.57644468090394    1.46933706918080    2.73131606846234
C          -8.03804172057200    2.90703694852558   -0.45078202459489
C          -8.76482966284918    3.96766417015888   -1.03415147381535
C          -8.59184908080683    4.49590918488524   -2.34949488009488
C          -7.64399345596852    4.08939961020240   -3.23267318897768
C          -7.51107600245206    4.52898476181202   -4.57242498021905
C          -6.47549292171169    4.16684893802692   -5.41955131583413
C          -6.65009390228057    4.74724231359021   -6.69068900445588
C          -7.81372568480857    5.50203932371989   -6.69944407130858
C          -8.40400717521923    5.38647322897824   -5.35518601130311
S          -9.81257467862254    6.08771425979095   -4.91488996211428
C          -8.37268284941689    6.23800133622275   -7.75429087962191
S          -9.91190927699901    7.05022193121070   -7.63094109250711
C          -9.86432397623576    7.67644689024557   -9.27135117763680
C          -8.69212712777776    7.22894824128477   -9.89812440938833
C          -7.86192797832363    6.45395143838726   -9.03962495663868
N          -6.74604898436881    6.11532276190449   -9.72839106480722
C          -6.84530002186330    6.65602023052381  -10.98554278082049
N          -5.79936041616461    6.43994864335118  -11.90708595061960
O          -4.85870216748240    5.77611032468529  -11.50200081528733
O          -5.90479308760718    6.91436342981228  -13.01594980580085
C          -8.02799526796191    7.35096990972360  -11.13487746505012
C         -10.90447876759321    8.42024252379811   -9.83284004051616
C         -11.91302937266825    9.08153362553943   -9.17953830587856
C         -12.02579174048581    9.54314238706300   -7.81986779717667
C         -10.99918358106052    9.99764771055209   -7.02683378728883
C         -11.21160754372791   10.62587714987847   -5.78902691937470
N         -11.35560126804953   11.15690215730364   -4.78041064541914
C          -9.64769224254449    9.99662849092560   -7.42434808855924
N          -8.54197936480503   10.03952035380633   -7.73114608029759
C         -13.44307977603794    9.76696822062373   -7.55509068070242
C         -14.14275242119944    9.72785186482389   -8.78749463699548
C         -13.19690172024296    9.37332463297774   -9.86923570787874
O         -13.41965856520131    9.28522321242072  -11.05429258271007
C         -15.49283492491588    9.96678921687355   -8.87068637896016
C         -16.18426128353474   10.23001290858051   -7.68189860122040
C         -15.48110091627215   10.21743841649180   -6.45395126084095
C         -14.11219437911221    9.99451671808702   -6.36981840155954
S         -16.53934309611338   10.51879295820876   -5.11104274310676
C         -17.89063023009187   10.68509290854405   -6.20113610429531
C         -17.56780431759789   10.50840206246127   -7.50416456910458
Br        -19.58668731453674   11.07526004953876   -5.50563384790821
H         -12.11059944957665    9.96601221159617   -3.06164537089480
H         -15.73354613831717    9.52458986275639    0.37633311829176
H         -13.49029355163152   12.21983513716803   -3.88099619944625
H         -11.94570521597938    5.26162122957235    1.15481746910325
H         -10.42374080730597    6.04598278726672   -1.25456273656961
H          -7.22112365520152    2.38594999883024   -0.91458519187705
H          -9.28750282339342    5.25761308533036   -2.66529829927201
H          -6.90307683791490    3.36301328429707   -2.92482344842860
H          -5.65069885378735    3.53243649882905   -5.15068798906916
H          -5.97875444042238    4.59693418749973   -7.51469216199505
H          -5.93285823409624    5.60136438479920   -9.42501104816786
H          -8.34916844498010    7.86658483999528  -12.01636197810768
H         -10.97518674844239    8.40797075969315  -10.91601161950361
H         -16.00328329632621    9.94978517549025   -9.82066380725457
H         -13.61770617676996    9.98213345460674   -5.41270581083063
H         -18.27573453673184   10.57383362942683   -8.30997817225050
