76
 SCF done       -151.429249276416          0.000400183613
C          -3.68042209538383   -1.17636006492232    3.09052585318184
C          -4.03929214752549   -2.43582920502385    2.66054528985002
C          -3.30205174713366   -3.60151108060175    2.94262956455184
N          -2.74499406386203   -4.58815952049666    3.13587200274858
C          -5.14668860437306   -2.75155107413252    1.85013168854515
N          -6.00332775378899   -3.11270438347078    1.17247231915050
C          -2.47040656197595   -0.86070384661989    3.84963135733756
C          -2.38257447906173    0.54524772258559    3.99345468589033
C          -1.34844872895443    1.15902497602674    4.65404435059320
C          -0.35243609067099    0.34561580149470    5.20762654631810
C          -0.45277982243445   -1.05655625994233    5.06577597082326
C          -1.49839600373175   -1.67810578130123    4.39194205184333
S           0.87795134980559   -1.87344935615546    5.83111488220207
C           1.54088311604694   -0.33781960991641    6.32275931134907
C           0.80721711447399    0.73152988247543    5.93547514163445
Br          3.14203492053468   -0.29128875147170    7.30090062421688
C          -3.55745383560305    1.17389483754103    3.34697482002286
O          -3.78623851445603    2.36688064668531    3.27835458823578
C          -4.36849856945506    0.05829753857278    2.83475465562301
C          -5.61617395598316    0.19137726222846    2.25323504699613
C          -6.24775468886919    1.38853820321714    1.94865664107303
C          -7.50900784126392    1.42285923463032    1.37552204127433
C          -8.20580155471328    2.55420572699374    0.89586093931185
C          -9.40435000810511    2.26147601307506    0.30825863013923
C          -9.71613606078383    0.88761247465800    0.32191463425301
S          -8.44895779707900   -0.02159820580357    1.10767779381064
C         -10.79390679973256    0.21930055424562   -0.23243936817676
C         -11.82138190505992    0.71465386261751   -1.06917464787071
C         -12.61383842790973   -0.26204383288438   -1.58800434170407
C         -12.26224947155066   -1.57689250053985   -1.17595748353163
S         -10.94724864829981   -1.49906640063842   -0.02039916832244
C         -12.71801741606643   -2.74783647928594   -1.71927991553280
C         -12.26950744036315   -4.03753196869573   -1.35220220588854
S         -12.12552658147075   -5.29697979452128   -2.56468404049381
C         -11.28095768487659   -6.35424401718051   -1.47851738078636
C         -11.25336483869275   -5.80488961428268   -0.20113447517574
C         -11.78790600322546   -4.49511382576604   -0.13300246280181
O         -11.88397398406648   -3.77431448149175    1.00009813551116
C         -10.68861123510493   -6.41231663357162    0.93020471880941
N         -10.25915478239423   -6.82648189781760    1.91126521843260
C         -10.77537850446567   -7.62823343301666   -1.85423802425560
S         -11.08522848421575   -8.95689195208137   -0.76723939311389
C         -10.36790357984557  -10.07342471853271   -1.82103778491181
C          -9.86240600407013   -9.47818064859838   -2.95493775526356
C         -10.06628537654883   -8.05456866986244   -2.98135399435930
C          -9.48555376040952   -7.29388394223533   -4.03154655241715
C          -8.82296711625066   -7.96630263918669   -5.05615563415515
C          -8.71750661868339   -9.38452080984129   -5.04870411393420
C          -9.20044324921835  -10.12665984231573   -4.02312756073470
N          -8.26581113794365   -7.29962522017121   -6.11272010570819
C          -9.51426205619931   -5.83311676171605   -4.03992310189437
S         -10.20975031112744   -4.95102319726601   -5.38011159153774
C          -9.85225631720595   -3.45054771509288   -4.65623226876975
C          -9.23204594573348   -3.59582185341385   -3.44236818384923
C          -9.03711258154451   -4.96912640126302   -3.08574137361962
O          -8.46035995077045   -5.39864151307805   -1.94158672928054
C          -8.83654423884255   -2.50855032754957   -2.64743688712874
N          -8.51782015978111   -1.62109764023876   -1.99388107254019
H          -1.30759607931694    2.23328551569864    4.74439356089434
H          -1.52977467718320   -2.75191872551420    4.31395249878285
H           1.06988191243366    1.75082668088882    6.15296228237728
H          -6.15480266761894   -0.71612242895436    2.00632451677849
H          -5.73643285793411    2.32168418014295    2.13350660489886
H          -7.79237461227793    3.54373664450980    0.97861905175329
H         -10.06171066978350    2.99270364683903   -0.12770066745617
H         -11.92194324733713    1.76195388814895   -1.29104585847818
H         -13.42368357649918   -0.09127016468898   -2.27557056793851
H         -13.38674539892181   -2.68495011039752   -2.56767141418822
H         -11.44977892346671   -4.23612925009679    1.73139164184207
H         -10.34242224422077  -11.11442225035016   -1.56648992069678
H          -8.20513328076757   -9.85554353613276   -5.87481733388994
H          -9.08187229044741  -11.19845217932540   -3.99663701561819
H          -8.08347162240186   -6.31500587112617   -6.02014889466751
H          -7.63039061372447   -7.81338018973030   -6.69843581981842
H         -10.10736483782447   -2.53229924799447   -5.14652822532895
H          -8.10020927630235   -4.65728546738124   -1.43511632499388
