88
 SCF done       -173.905589212751          0.000721683850
C         -16.69450638343334   -9.90147626438818    5.70433638588490
C         -15.74531976989925  -10.44222217173084    4.86829997598373
C         -15.31422880091541  -11.78242261812326    4.92423533772136
N         -14.92234026902061  -12.86226013265931    4.91346859034755
C         -15.07089769155414   -9.76050970596393    3.83598645646718
N         -14.47430734945566   -9.28975516833076    2.97379026147410
C         -17.39763034576291  -10.63040512036661    6.75852084006078
C         -18.31655815159035   -9.75189951868619    7.38198651563930
C         -19.13099585908054  -10.14136233516779    8.41610472367306
C         -19.03360844111594  -11.46447966020140    8.86079235425781
C         -18.11169721196436  -12.33455086865984    8.23416257539141
C         -17.28855348436967  -11.93974247446419    7.18582098959663
S         -18.15031624890483  -13.92241199568145    8.93989261330984
C         -19.38830727061329  -13.40146396858940   10.05183646168965
C         -19.75516212333670  -12.10662495968143    9.90439075283381
Br        -20.07986007374758  -14.61695473039309   11.30258378554260
C         -18.22541448051759   -8.42070594608760    6.74694774858386
O         -18.87996339123890   -7.43952075054407    7.04190545826305
C         -17.18504076027328   -8.54610184422397    5.70612793930435
C         -16.75345473882709   -7.51087045387627    4.90273407491652
C         -17.24782031645992   -6.20983513037428    4.94977407156715
C         -16.75841384366602   -5.18477870044138    4.16589778143142
C         -17.19026955945026   -3.83684405404952    4.19025086366169
C         -16.50604081951101   -3.01805255135246    3.34373001537558
C         -15.50086487173862   -3.68001858620835    2.60187762882075
S         -15.46372997101801   -5.38173962264622    3.00569805839674
C         -14.61456144751994   -3.12516897383024    1.69762326142396
C         -14.49184981717955   -1.75458238733704    1.35368362961626
C         -13.48341868653301   -1.49925374825114    0.48161036253177
C         -12.75935665892323   -2.65586521417386    0.07890401686773
S         -13.43019052360441   -4.08430767200647    0.84418530837121
C         -11.67721542823513   -2.68337066235741   -0.75340000803964
C         -11.00248717432224   -3.86419298114328   -1.13505591155004
O         -11.49095369820578   -5.08742311944633   -0.75658336517097
C         -10.63447921090613   -5.98225507721005   -1.29530479867841
C          -9.62424496973784   -5.24255888190938   -1.98454278724528
N          -9.91471146109550   -3.91763272072436   -1.85308021748293
C          -8.57558250200947   -5.86950296157464   -2.64179688399450
C          -8.60590750686434   -7.25227861157775   -2.59219155339987
C          -9.64625784477551   -7.96676176458597   -1.92442673485096
C         -10.68589938996864   -7.36017347114682   -1.24467568075271
O          -9.40378123602547   -9.28282708880617   -2.09256429391354
C          -8.24844671431713   -9.33566765076041   -2.82666251726633
N          -7.75265641645203   -8.17667523277331   -3.12962439093630
C          -7.69539687141258  -10.59649059736243   -3.22021710565333
C          -8.34663088090196  -11.76276541500514   -3.10514749754734
C          -7.77912091274788  -13.02017168470044   -3.56015841131320
N          -6.47340662067332  -13.05979934295901   -3.83910795138197
C          -5.98213047384800  -14.21529859542686   -4.24505220658748
C          -6.77062278760789  -15.34339924221453   -4.40922115148280
C          -8.13488284510505  -15.20232183789634   -4.12295399213910
N          -8.61890139197235  -14.04020287230319   -3.68085078391156
C          -9.05435028665655  -16.30183490671207   -4.32863403479304
C         -10.38076452573068  -16.16757582544674   -4.14401199814200
C         -11.34397710324304  -17.18964246067550   -4.38659854060810
S         -13.03489672367571  -16.83324495531184   -4.11636871669742
C         -13.56665035860418  -18.41676418535162   -4.62360854346926
C         -12.46880087626155  -19.16810243669160   -4.97591481585732
C         -11.22906509537771  -18.48448935458251   -4.84353142790421
C         -10.15326785193702  -19.39792020218961   -5.25637308209854
O          -8.95751197457652  -19.24782478364241   -5.30902053442849
N         -10.81210545835866  -20.56658991804220   -5.60822537463493
C         -12.19435122127665  -20.52435122500470   -5.47485203432100
O         -12.92904525539138  -21.44307060796426   -5.73575051361979
C         -14.97420285932639  -18.70373685385817   -4.61384438023498
C         -15.51490611227785  -19.86331558128120   -4.98497655146138
H         -19.82103639837970   -9.44736059764788    8.86991898493955
H         -16.60210070205819  -12.64214432153209    6.74390182565086
H         -20.50311101121551  -11.62248095675116   10.50540855241867
H         -15.96314836432158   -7.70619729116877    4.18826067188383
H         -18.04328418003960   -5.97915503896159    5.64384160492591
H         -17.98682773900997   -3.51853961792098    4.83883528177071
H         -16.69626869209940   -1.96563285011626    3.23506213115124
H         -15.13873326097741   -1.00279218905211    1.76822755678104
H         -13.22406566359672   -0.52429481763547    0.10953288156692
H         -11.28009716543258   -1.76518217751591   -1.15598815751021
H          -7.80404734800407   -5.32346381791375   -3.15398358398686
H         -11.45845704498053   -7.90485516166795   -0.73034141369343
H          -6.71097192809204  -10.55643911705931   -3.66089196919587
H          -9.34829581246845  -11.81625081095745   -2.70460659697934
H          -4.91883827101036  -14.22909417059225   -4.45030269555566
H          -6.36580394277944  -16.28192421313600   -4.74996329189605
H          -8.62798897143651  -17.23425784211266   -4.66813180961590
H         -10.76233069063504  -15.21499134857816   -3.80137606056659
H         -10.32419617811502  -21.38810019883461   -5.93614713858856
H         -15.59780426594163  -17.88674929217795   -4.27347453856631
H         -14.91380470853880  -20.68969951593005   -5.32301124591453
H         -16.58042626639866  -20.01042421233899   -4.95133103207632
