96
 SCF done       -185.235746035962          0.002084886129
C          -3.80530072497965   -1.62811718032579    3.15734392362591
C          -3.87397257643489   -2.60313243734362    2.18683162366729
C          -2.80559569075038   -3.45099383160698    1.83770857777758
N          -1.99082640946428   -4.19916068762573    1.52583252447354
C          -5.00573137491120   -2.93014636764354    1.41638588720937
N          -5.86483710282361   -3.28302710712068    0.73779545367317
C          -2.59955940451332   -1.26360157125953    3.89596944335760
C          -2.92331194862159   -0.23462187302250    4.81448433109115
C          -1.98866224866880    0.33307144355332    5.64393332449015
C          -0.66865030000321   -0.12738238949832    5.55586192959877
C          -0.35528604058317   -1.14887579060157    4.62971930534052
C          -1.30328078297611   -1.73005235143741    3.79568058382324
S           1.33385954151965   -1.55489590868316    4.66933889485149
C           1.59355011507935   -0.36358814020230    5.91536413049168
C           0.47384739461889    0.30419974671642    6.28359515472061
Br          3.31867157863184   -0.11388001358378    6.61068223088760
C          -4.36195754154277    0.09214444564182    4.68750668401306
O          -4.98072586704271    0.90546200480340    5.34710950230075
C          -4.87469996301618   -0.79138656311684    3.62727326892005
C          -6.18727814669147   -0.84015756697714    3.20267277779085
C          -7.22146575564256   -0.00554427650424    3.60580697842377
C          -8.52066021795691   -0.22139842955970    3.17890337511208
C          -9.65127081320664    0.60033757738876    3.38595968959025
C         -10.78666838057415    0.13950115553693    2.78631763470123
C         -10.61588923650302   -1.09218140752180    2.11419128531641
S          -8.96352070529354   -1.63489908108406    2.25286571037143
C         -11.53998082116775   -1.82908049705411    1.39971411444018
C         -12.85557908741562   -1.42505341362267    1.05280434008332
C         -13.51311291946744   -2.33124152558068    0.28947726461744
C         -12.75325279482941   -3.50404294969392    0.00360168396620
S         -11.16831372847699   -3.41174748899816    0.74332887230300
C         -13.13951141704947   -4.55421574241614   -0.76314017278818
C         -12.26505493232695   -5.64803576759616   -1.07919221004279
N         -12.72619224615207   -6.52415812229825   -1.97848938619722
C         -11.90797854242677   -7.49274952215136   -2.34148068552991
C         -10.63202311074096   -7.61232002004634   -1.81976613065070
C         -10.23751390937746   -6.67469508017923   -0.84707525339479
N         -11.07018067999540   -5.69227266916193   -0.48985425903965
C          -8.93377378273353   -6.79961947446167   -0.24974185241390
C          -8.47566024922438   -6.10259883531010    0.81808776241558
C          -7.17673257641125   -6.29358862144779    1.33755803393554
C          -6.67904909135437   -5.64842687620566    2.43548567526504
C          -5.35485965297283   -5.71034783973956    2.94970105046053
C          -5.12665014330909   -4.87955474029402    4.00174297962124
C          -6.26667274727374   -4.13493255812857    4.39417709737053
S          -7.63994749225644   -4.54646641519436    3.40167124999917
C          -6.38726385300094   -3.16447383132294    5.36892665537185
C          -5.42937508229172   -2.58724576370704    6.23040055231426
C          -5.92945084703243   -1.57814292881891    6.99834164619282
C          -7.30968575773186   -1.31425601370626    6.80284802610631
S          -7.94950716675399   -2.42902304937719    5.62998191691950
C          -8.01228749602737   -0.25756020958215    7.35337976009956
C          -9.33950701820280    0.11701067810728    7.14552291857393
C         -10.41952743733127   -0.57992344326283    6.63534470677322
C         -10.69930915462926   -1.97769562731644    6.50488218373506
C         -10.18844709908083   -2.99886714447035    7.27660382456319
C         -10.56744223770756   -4.34674790095831    7.13928178547382
N         -10.83342895334531   -5.46094213026610    7.05771011953958
C          -9.30858526340914   -2.78617160824785    8.35380140594994
N          -8.60190818409899   -2.65041231568564    9.24795482384371
C         -11.81291070083445   -2.12414849949718    5.57110721325001
C         -12.39740938593501   -0.85024435982718    5.37351303495039
C         -11.56341285811836    0.16602991075450    6.05942824380768
O         -11.74764814635865    1.36416093140371    6.09012865605225
C         -13.53415913304946   -0.67729033767117    4.62306683347209
C         -14.08145531038448   -1.80412159135745    3.99563717870720
C         -13.43342943699807   -3.05285012621041    4.13097779265949
C         -12.30893408986214   -3.23801251748477    4.92792146316661
S         -14.23099409817445   -4.29439225031001    3.21425454120657
C         -15.42753638017149   -3.13954424994961    2.69148704380640
C         -15.23712567212621   -1.88773499158781    3.16944327417292
Br        -16.79112836592800   -3.69106140375829    1.52752024644690
H          -2.26118358697235    1.11703915992564    6.33306813214882
H          -1.01406271561404   -2.50265269670869    3.10286198899922
H           0.45416480818004    1.07163052281204    7.03559397554488
H          -6.44900195601912   -1.60316879232942    2.47903954000615
H          -7.01550426370312    0.83122062767470    4.25688246520179
H          -9.59102955824876    1.51300958621189    3.95173314549015
H         -11.73151564941100    0.65039282957682    2.81905062004985
H         -13.25499626663191   -0.47191011705743    1.34922739684515
H         -14.50589059593396   -2.20535447553591   -0.10515076573233
H         -14.11986433818127   -4.57650222509119   -1.21332673474195
H         -12.29218784800146   -8.18752530735533   -3.07744103281539
H          -9.96644040705776   -8.40122808094465   -2.12996455680244
H          -8.29341598094611   -7.54668621008941   -0.70179753111621
H          -9.11779761387428   -5.37154307859544    1.28995699152903
H          -6.51544151091483   -6.97595505868814    0.81920462301280
H          -4.60784697663482   -6.34088084355513    2.50059966226183
H          -4.18178151566632   -4.77809039376170    4.50651804444967
H          -4.40616917321565   -2.91903657685379    6.25220875166627
H          -5.35118684380596   -1.00348419182254    7.69898118684153
H          -7.40917698477483    0.42741840076404    7.93510069294628
H          -9.56258344401312    1.16054234102221    7.34929280823616
H         -13.99206906088632    0.29466648142117    4.51982740487642
H         -11.85536265574075   -4.21081182063750    5.02010580166247
H         -15.88202420525085   -1.05692454651428    2.94756714546653
