102
 SCF done       -189.159391416333          0.000809851233
C          -3.00293239906164   -1.80968016037138   -8.82829793888479
C          -3.25207800974734   -3.13555697016277   -8.54106402338617
C          -2.45392513298408   -4.20321880019994   -8.99215816634208
N          -1.84360728820437   -5.11815540598968   -9.32628969763632
C          -4.32554898006120   -3.62390797309165   -7.77402432589615
N          -5.16517267168822   -4.11756688503742   -7.16275653983941
C          -1.89277461181851   -1.32839897437111   -9.65229980727301
C          -1.98873353656407    0.07952553026220   -9.75768068470061
C          -1.08966085172400    0.83451815750643  -10.46745129821525
C          -0.03893091663953    0.16688872729942  -11.10767267610130
C           0.04934706613170   -1.23862331141174  -10.99761472365448
C          -0.86315057769134   -2.00299857937937  -10.27801617774111
S           1.42356257226814   -1.86183534778478  -11.86200684825799
C           1.85128757741846   -0.24476607806377  -12.35321686131132
C           1.01267636960511    0.71313310484849  -11.89447515412703
Br          3.36966058607189    0.02750443552054  -13.42245578325671
C          -3.16964480578051    0.54301364288642   -8.99573013345096
O          -3.53831308779474    1.69850484368748   -8.88805864921915
C          -3.76756925628061   -0.66874828579550   -8.41234037585698
C          -4.87874598844443   -0.67142974074257   -7.58029977158545
C          -5.60865623156058    0.45522390159427   -7.24448359905316
C          -6.71147832914623    0.43623318262761   -6.40055431844801
C          -7.53244994303393    1.53113368537261   -6.07875486035902
C          -8.57345634385623    1.22114364437320   -5.24208678056544
C          -8.60263440519530   -0.12832151450019   -4.86160723544621
S          -7.28003228845640   -1.00394122475218   -5.59102542265611
C          -9.54117349219960   -0.76176962378429   -4.04470351030007
C         -10.71817963944161   -0.22028345557047   -3.51023604213499
C         -11.46994847672420   -1.12761996883780   -2.80449970064410
C         -10.91178336882648   -2.41074029014540   -2.75094025415859
S          -9.38126375288006   -2.43883189517788   -3.59742728352163
C         -11.48204386359396   -3.54322302067622   -2.17678715047421
C         -10.93654760867362   -4.80459605581553   -2.21219803908581
C         -11.58147980419568   -5.94629291379760   -1.74504366684362
C         -11.14677889208239   -7.27429311450090   -1.86662568857421
C         -12.05042843178812   -8.20435431758244   -1.42032240105801
C         -13.23348444653735   -7.64179579423006   -0.91613024609093
S         -13.15989291803263   -5.89357585622695   -0.99584677187192
C         -14.38033928480013   -8.29395160176507   -0.48732646327804
C         -14.66495466026208   -9.67528035637870   -0.56250624031582
C         -15.94483730906728   -9.98710107949699   -0.22554278334866
C         -16.75335198999576   -8.87119191606335    0.13139662342521
S         -15.76545431006403   -7.41256316683869    0.10756136656721
C         -18.07692582538425   -8.95465195086215    0.45140177512491
C         -19.03685295227796   -7.95845847319287    0.79760046211177
C         -20.06327685178516   -8.24267080950708    1.69511728928280
C         -20.38893467566280   -9.50473182578113    2.40628366085633
N         -20.76168550694941   -7.09853166573252    1.91554276841036
C         -20.25930072736735   -6.07594292893627    1.18117572982564
C         -20.87184178570490   -4.72351167203909    1.19942950960027
C         -19.18772935800607   -6.56524489613019    0.43768186113393
C         -18.54783210093714   -5.78742360408264   -0.56666028302578
C         -17.80362583585332   -6.26127748429933   -1.59944087494788
C         -17.14413999759483   -5.37544806346069   -2.47643797080342
C         -16.09561342259023   -5.56573843310804   -3.33237282418921
C         -15.24753937154557   -6.68963991593501   -3.66567399099672
C         -15.50695372533807   -8.03468805690562   -3.56237321849868
C         -14.54995099141374   -9.04478151080411   -3.79170472256078
N         -13.82211050991706   -9.92644620535052   -3.90630508355708
C         -16.73789340961584   -8.64556732830524   -3.26309527607282
N         -17.69696115937328   -9.24883822861608   -3.06868947499065
C         -14.01850287166005   -6.14525168976991   -4.24509400124778
C         -14.17459138203225   -4.75052210674207   -4.43976054166358
C         -15.47898303873714   -4.33756121602536   -3.89992524134832
O         -15.94609995785055   -3.21864835028037   -3.87156122728263
C         -13.20736267374149   -3.96475097985270   -5.01654972388491
C         -12.00872555522468   -4.57630122864209   -5.39551297671939
C         -11.84275598516554   -5.96138902663147   -5.15958984850949
C         -12.83512062579208   -6.76170127622660   -4.60828453424021
S         -10.25976279558725   -6.49888475811835   -5.63267050582610
C          -9.85155540131736   -4.88444437789001   -6.15518331745970
C         -10.85578857239712   -3.99010396977420   -5.98156762659659
Br         -8.13717480890375   -4.52864834964167   -6.82865238047613
H          -1.19150052842695    1.90671363488260  -10.52838070241481
H          -0.74867758829718   -3.07244775909872  -10.22458220458760
H           1.12853166261563    1.76168509611981  -12.09984488319936
H          -5.20712348990456   -1.61635112240374   -7.16477758219054
H          -5.32320608086437    1.40858016475117   -7.66535801753249
H          -7.34258673244167    2.51195061730651   -6.47655555212792
H          -9.30161413981857    1.93256385958631   -4.89623825754249
H         -11.00127209268638    0.80469301594901   -3.66632765420523
H         -12.41412609332927   -0.90260480581576   -2.34099829694768
H         -12.44895143886700   -3.41161311334197   -1.70643074530855
H          -9.96453265150127   -4.94314078068363   -2.66830632531148
H         -10.19332248154169   -7.51746269684135   -2.30093814506271
H         -11.89414027395147   -9.26664915611469   -1.46112695632005
H         -13.93449948906046  -10.38816718985583   -0.89842821865112
H         -16.35494829200456  -10.98044687245101   -0.25825434913333
H         -18.45253445846740   -9.96928594537093    0.52321793270589
H         -19.61398086006917   -9.75585008134494    3.13085624651772
H         -20.46647766406888  -10.33180661516912    1.70220009692077
H         -21.33547838482768   -9.40941737045822    2.93351713227298
H         -21.55220357912867   -7.02358189523810    2.53740556511430
H         -21.59534392974043   -4.64588896746502    2.00798370428958
H         -21.38336317090890   -4.51632682289241    0.25919827327982
H         -20.11021747037870   -3.95865560721137    1.34049009514500
H         -18.69749074767764   -4.71703836252567   -0.49039429337526
H         -17.70872889868864   -7.32253871915165   -1.73181603245767
H         -17.43693372929026   -4.33078400203850   -2.39712792955025
H         -13.36709771157497   -2.90781455810641   -5.16189073498008
H         -12.65744634191030   -7.81401251897286   -4.46605963518872
H         -10.78237773466262   -2.95394022131409   -6.25614983653167
