108
 SCF done       -201.477336195817          0.000708278752
C          -4.92171108681553    4.50436521773366    5.01315824683147
C          -5.59858407911188    4.58049570188267    3.83219620854707
C          -6.18182215328747    5.77300278663839    3.35449637169558
N          -6.66328896133215    6.72815277786336    2.93988201513864
C          -5.86287420321725    3.45867747496912    3.01505637423849
N          -6.13242031814608    2.58101136953617    2.32785269914511
C          -4.75037321533171    5.55646585367064    5.99851551537147
C          -4.42080609769037    4.95817050446751    7.24299149426338
C          -4.21834262464135    5.70256055808511    8.38020763547780
C          -4.30598467769606    7.09408690917126    8.27302669728013
C          -4.59696635235462    7.68054499839003    7.01697732079532
C          -4.83383181547820    6.92943571440740    5.87358589084878
S          -4.60180529675249    9.41256818852528    7.10562648738198
C          -4.26635536995289    9.33116662982480    8.81148083452872
C          -4.11923066184245    8.07103907854519    9.28739879895403
Br         -4.17388009621917   10.91427030578550    9.81243120279704
C          -4.27769303280269    3.49957708128732    7.06920864044867
O          -4.09512550748373    2.66795197437116    7.92656132677923
C          -4.36271531708152    3.28670302450285    5.59174167610246
C          -3.81961496764761    2.26536857393436    4.90787997114958
C          -3.19617044549604    1.09246413379037    5.52913121120304
S          -1.31347626526837    1.11283911101575    5.48341917477750
C          -1.80490395125248   -0.29800996305763    4.57887220258345
C          -3.13733931417866   -0.15148596695265    4.68127905481988
C          -4.28021904546139   -0.84790520825883    4.09392522520093
O          -4.27474146171834   -1.97419018632264    3.66358129544455
O          -5.33596060301581   -0.02112205371054    4.08913345432472
C          -6.59393401767339   -0.55281342712566    3.65775857636090
C          -7.33023857076438   -1.07844934256481    4.84774460804285
C          -7.58612456326687   -0.31076609684970    5.92297173237850
C          -8.18596261015637   -0.71716538463870    7.15962361049011
C          -8.34813111873803    0.28070933880971    8.05392043598693
C          -7.91550943494960    1.55748491225608    7.59187503900622
S          -7.22117466306319    1.41877390148951    5.98497159751833
C          -8.06443935297797    2.75449404092682    8.24004890560120
C          -8.62303890520838    2.97701769077280    9.52608975143458
C          -8.75806611077634    4.28283142552334    9.85163652053838
C          -8.32351541791877    5.20590508826381    8.85047792365481
S          -7.66697988002479    4.29297103646306    7.48868489752999
C          -8.42458147563029    6.55564697993789    8.99569232240407
C          -8.09988189068603    7.61956863869848    8.08636591463708
C          -7.96993710048607    8.97244707353360    8.48108169129823
N          -8.04897100203331    9.59541385663045    9.71893165657332
C          -8.04907329469898    8.96169193954960   11.01787880757547
C          -6.79592175894239    8.12427784880846   11.26570036769031
C          -7.85625457508579   10.95192730104715    9.54667372185551
C          -7.59783711445187   11.21381824480486    8.18314047199693
C          -7.71688862467730    9.96075400125139    7.50028268491091
C          -7.61285888059545    9.65851481283751    6.14946520926789
C          -7.74538062021883    8.33940623578618    5.76530361221678
C          -7.96467804084472    7.35800810746253    6.71577796201710
C          -7.25026566908556   12.48039319459315    7.73889308898239
C          -7.15355806407783   13.49637278576115    8.67060886641167
C          -7.45533915656024   13.26167346665597   10.00177481528697
C          -7.85939851638694   12.00849145993035   10.47421895659864
C          -8.35396704111880   11.92577673640464   11.83329268702412
C          -7.77151072301123   12.53231179669539   12.89118424665846
C          -8.24259914358026   12.45945138109376   14.23118312270679
C          -9.49644089408023   12.23392446970908   14.71341112863858
C         -10.81424360686102   12.27327253690284   14.11321214900831
C         -11.21309876801118   13.05819292702303   13.06204693112710
C         -12.53786189910736   13.12007402420604   12.58607952102610
N         -13.59806703710826   13.18682176765763   12.15087200239462
C         -10.36012451464736   13.95928063427368   12.39436100611774
N          -9.71886814659327   14.73932934716631   11.84966460802301
C         -11.71715390131068   11.54226179338333   14.99799231089800
C         -11.04169294426804   11.27349389599171   16.21481385619858
C          -9.65143293225137   11.76248963950631   16.11613087870908
O          -8.79689107278869   11.74091254512649   16.97258460129846
C         -11.64973363984691   10.63981481001836   17.27114117984195
C         -12.98120040744020   10.24041224417535   17.11416019524038
C         -13.64036324142900   10.49598858068061   15.88788885426114
C         -13.02926147069069   11.14607119678782   14.82260907234670
S         -15.27431369869321    9.90535331294913   15.90512825066885
C         -15.05558144197231    9.33687186349656   17.53949668466013
C         -13.82256731080587    9.57332102654404   18.04653435616587
Br        -16.47423618344387    8.48053561306570   18.41825892088043
H          -3.98193396355615    5.22843528558672    9.32002314964828
H          -5.04916675912690    7.41139817388997    4.93460500289566
H          -3.88351234628660    7.83511669933513   10.30886042539394
H          -3.78826616766282    2.29833380528561    3.82616226371151
H          -3.51417168571021    0.94007568252010    6.55941075393511
H          -1.16625232397378   -1.01075262284198    4.09628863951586
H          -6.42083602430014   -1.33825914646425    2.91816445901191
H          -7.10920003107671    0.29877855033624    3.20126213430213
H          -7.58167353511603   -2.12712280774362    4.87265328775857
H          -8.46878085856213   -1.74212227469819    7.32060640375242
H          -8.78642205939182    0.15577497287512    9.02788983072754
H          -8.91042341236369    2.16149256006957   10.16467575187851
H          -9.17251908416078    4.63490140145849   10.78044849529191
H          -8.86378090935611    6.84832310733234    9.93638474598290
H          -8.95875000503635    8.36714618870083   11.14919410705465
H          -8.06394799914145    9.75220037040995   11.76770514051195
H          -6.64267466739316    7.38593151968170   10.48275700554619
H          -6.88593259268580    7.60916081930214   12.21863344285749
H          -5.93021183841481    8.77981305707134   11.30935542353258
H          -7.44066869509673   10.44066714081635    5.42740148355974
H          -7.68759975798360    8.06417921052845    4.72357663988269
H          -8.09150117674104    6.34341982116605    6.37570591795149
H          -7.05178178016457   12.65745396362624    6.69340597177942
H          -6.86986196454398   14.49001894277044    8.36134319742762
H          -7.45681027174246   14.08690475640128   10.69584750913201
H          -9.26980346646079   11.36505584210395   11.98624938591425
H          -6.80929724228128   13.00556815393918   12.75048425019070
H          -7.47709155389179   12.50780961007698   15.00074297989881
H         -11.11610451137398   10.45859338528462   18.19088071168067
H         -13.56957893304590   11.31655517245866   13.90604551447072
H         -13.51675701886006    9.29037280345420   19.03716863935432
