98
 SCF done       -185.817780187967          0.000640643637
C          -0.87789153977258    4.05765638366923    1.55511132880361
C          -0.36463494634391    5.32384505269504    1.11022903364091
C           0.98011542461060    5.51747762100640    0.72023248019989
N           2.05990794724826    5.73369924917514    0.39701366101403
C          -1.03439873772349    6.47840706335964    1.05861281620862
N          -1.54750142489023    7.52549635508714    0.79667868205647
C          -0.06208071545354    2.88120729563734    1.81428604602051
C          -0.91509579090660    1.85506181488850    2.29714684896477
C          -0.46082019988867    0.61004528853635    2.63529675171887
C           0.91195142650905    0.35224008317409    2.48938577467508
C           1.75350914248658    1.37870960927158    2.01174239706727
C           1.29093818966076    2.64779031169785    1.67168888728479
S           3.40632137744980    0.85099507400545    1.90657923803674
C           2.94601055782732   -0.72358768765261    2.49828318399289
C           1.62368094840553   -0.84725236902869    2.76179565261676
Br          4.25382006645605   -2.05373605463956    2.71163065560999
C          -2.30167586754905    2.38002616281012    2.34817488745530
O          -3.28427418284379    1.77593444646955    2.71642671654455
C          -2.20997232575958    3.77564659932405    1.84612688105371
C          -3.31491576650698    4.62518014727351    1.64450862811118
C          -4.60521881230473    4.36904610034169    2.02477548958409
C          -5.64810835946979    5.24982617268315    1.71311184640531
C          -6.96390835555900    5.06790678863508    2.06197059360108
O          -7.90663445947954    5.97136110782247    1.65583085290156
C          -9.12899286801740    5.56579324684498    2.10558467766665
C          -8.95538285978182    4.36250037364030    2.84348449832123
C          -7.61407424201138    4.04694722820439    2.81685538942558
O          -6.99871644249974    2.99482744178801    3.38601885190928
O          -9.91287830466567    3.62286456896662    3.47063407877319
C         -10.27974876576679    6.26500335822103    1.81661135148406
C         -10.29946224222611    7.42506990971817    1.03273257681758
C         -11.43348829987661    8.11009555713324    0.68959697297087
C         -11.41786784290370    9.24685697211403   -0.13779642631258
C         -12.52958366502928    9.92217779130722   -0.54484923105182
C         -12.51168490970143   11.03768671108168   -1.40982293253910
C         -13.59884584629970   11.73696987853710   -1.91013262961019
C         -13.25494960520145   12.77222113981049   -2.77093416434073
C         -11.88948861714986   12.90504633552487   -2.95328907447641
S         -11.02550979462165   11.71027083910245   -2.02841207704588
C         -11.19831553593666   13.83373601301583   -3.76949392622348
C         -11.72113188995265   14.76592356701611   -4.64777458979952
C         -10.74683264674884   15.49496196553200   -5.31802011585655
C          -9.44440638027425   15.15592114499780   -4.98102438524467
S          -9.46023501767825   13.89123960378597   -3.78135913715841
C          -8.29803922207546   15.76204332653755   -5.54973589681017
C          -6.97263709772816   15.55917143555148   -5.30281830593230
C          -6.43138657366880   14.59678456599705   -4.40909633131937
C          -5.12059177807094   14.54309244886264   -4.05892245822505
C          -4.16435145826815   15.51140901528203   -4.46176332116268
C          -4.69197315516167   16.68898545411346   -5.25582328867012
C          -5.94502442233398   16.36234764369461   -6.08823767581619
N          -6.54600409036948   17.56154151574903   -6.63046843698888
C          -6.48969809971532   18.60364825916481   -5.92817884755590
C          -5.76018446902540   18.65369454703954   -4.64480373381767
N          -4.92265701115585   17.77506475922759   -4.32057177422160
F          -6.00778561007914   19.66812506178788   -3.82193268848990
F          -7.05532180441992   19.72277931630720   -6.37087213983345
C          -2.84310814947880   15.52479046508387   -4.13087680888335
C          -2.07791167406179   14.63591453738139   -3.33246385976604
C          -0.71743289942529   14.76963989743778   -3.10862384406689
C          -0.17704169613436   13.80382157447435   -2.26375559671925
C          -1.11145337311139   12.89757487636114   -1.80848462896666
S          -2.68200910038927   13.25591619232527   -2.46000970377431
C          -0.92329447930102   11.80568155527033   -0.91332123463275
C           0.24681694992862   11.35142285925165   -0.35056207898936
C           0.05911713085951   10.26386754043513    0.51547449337224
C          -1.24844291810487    9.88643642558880    0.62705605547125
S          -2.27665525469594   10.86225787566459   -0.36482734874541
C          -1.81200881127416    8.77238821071766    1.44490109914053
H          -1.13391981616148   -0.14980419285103    3.00066124813432
H           1.97852199668619    3.39376529153487    1.31070544882480
H           1.16768801692913   -1.74739940096415    3.13200428026428
H          -3.11930667783237    5.55014230750277    1.11443048558568
H          -4.83498197379180    3.46708379688128    2.56971114137931
H          -5.42711159674297    6.13877956626682    1.13627270671754
H          -7.66275436361171    2.44470232756829    3.82211717277676
H         -10.77301386440378    4.03643313895460    3.34324498557305
H         -11.21547703379940    5.88251408098028    2.20254023608482
H          -9.34513246916232    7.77861542410797    0.66753356709486
H         -12.39267058848969    7.75907782705456    1.04929856652325
H         -10.45219117032402    9.59279956794784   -0.48628392492715
H         -13.50684827256895    9.59345175642843   -0.21471498477322
H         -14.61257060456854   11.48553979704185   -1.65242323992330
H         -13.97165582028151   13.41421694355435   -3.25037916386822
H         -12.77688158791871   14.90084994504836   -4.79714884978292
H         -10.96927554346273   16.25902000611276   -6.04203146068039
H          -8.54156107010876   16.51282639585397   -6.29251821955905
H          -7.10106896438332   13.85768233173232   -3.99991511748544
H          -4.79621322500010   13.74050503199672   -3.41732907902946
H          -3.90225588099763   17.04306012656723   -5.93569797756585
H          -5.64592306935816   15.75534293123458   -6.95349259841275
H          -2.25437617962018   16.34955277661791   -4.51544512750876
H          -0.13791699355122   15.56012015500652   -3.55174563235898
H           0.85983623570057   13.76856014038914   -1.98352763346725
H           1.20673870046568   11.78725803782660   -0.55632049990131
H           0.86093128144993    9.77590695834337    1.04117632697632
H          -1.38645836451480    8.78931433578852    2.45671322439712
H          -2.89969984942057    8.87349697339419    1.50641343512307
