85
 SCF done       -153.737534141553          0.000684478068
C          -3.52694704385922   -2.64894816053862   -2.71481686750917
C          -3.50088983834145   -3.59869511171376   -1.72327191709175
C          -3.01478535155255   -4.90950307080501   -1.89323933401543
N          -2.63174700121048   -5.98914246862582   -1.97495350495215
C          -3.95694383890155   -3.37655235906876   -0.40923254562060
N          -4.31518153972844   -3.23756455000192    0.67303457073730
C          -3.05966193972267   -2.83479392692689   -4.08732319724036
C          -3.24238512698260   -1.62342507969908   -4.80349364922987
C          -2.89811454493969   -1.48322595437152   -6.12558583206955
C          -2.34800268549093   -2.59294101977092   -6.77680700165750
C          -2.17047018519067   -3.79701223762870   -6.05629631766940
C          -2.51743612843936   -3.93784290541819   -4.71667883703362
S          -1.47919736530612   -5.04112492813614   -7.05199815681088
C          -1.43964445699238   -3.94199999440741   -8.40515724604568
C          -1.91785095096052   -2.70597093906779   -8.12715785790526
Br         -0.77008002796373   -4.52894205682727  -10.05611660123289
C          -3.83948472979879   -0.62944403045180   -3.90328140331633
O          -4.14271131996721    0.53126924327838   -4.16965193125715
C          -4.01095029738224   -1.29512926710169   -2.61130091516019
C          -4.57211543719884   -0.63964836737349   -1.53723935767868
N          -4.96997708461618    0.62960899956119   -1.67081415385467
C          -5.56022819868123    1.41819014915118   -0.74315813672130
S          -5.89263853614777    0.85507378077787    0.86737791792524
C          -6.60161825872433    2.39660433983795    1.23006368723731
N          -7.09373841407548    2.61654288117859    2.52130360309249
O          -7.56166948677255    3.71579315875956    2.76459955341076
O          -7.01745872283601    1.69185119269842    3.31098052644382
C          -6.58737862751120    3.27323850497426    0.17877297900309
C          -5.98517478413555    2.73716961912870   -0.97681802707994
C          -5.78934420399145    3.42693743874613   -2.21545023026269
C          -6.35015666841513    4.61976911309310   -2.52695857890822
C          -6.13962569097289    5.30100223210863   -3.74978800743398
S          -5.29415937970260    4.50985053018704   -5.05833738310193
C          -5.61598270360515    5.83046327361963   -6.10896202253583
C          -6.32412063423133    6.82625614113817   -5.52232174191486
C          -6.71637075923074    8.08247597580465   -6.22712241398571
C          -6.61883953237025    6.55427552190755   -4.14471544810594
C          -7.31395752716244    7.50450297513564   -3.34051251765610
C          -7.27121215861999    7.65477817433089   -1.98702257111344
C          -8.03229297268030    8.62595972423742   -1.30775489010122
C          -7.98042839223093    8.80106859634452    0.05110400868784
C          -8.68217489761819    9.72466517143007    0.83548443849921
C          -9.73491856679387   10.60117255499127    0.51599433310853
C         -10.52856016769759   10.73908966214622   -0.64011504456396
C         -11.53004211148117   11.66697443409484   -0.67150576363038
C         -11.81423804759057   12.47644404593870    0.44941134472591
C         -11.09127387434934   12.35790133338502    1.59951857235323
C         -10.02630929389863   11.43411329177399    1.66071764518698
C          -9.17628296059553   11.08971036707502    2.71703305604208
C          -8.35414845937035    9.96606968894288    2.25580267021155
C          -7.46455566827919    9.28654229635462    2.98871893151329
C          -9.08553042956622   11.72129864204661    3.98270565671696
O          -8.52676693425659   11.04122710163163    5.04765072622290
C          -8.58091540582627   11.90421507108883    6.06395006836726
C          -8.32287775692009   12.27571546403791    7.49482591619167
C          -8.94017317012429   13.66378427787280    7.11298377171981
C          -9.12381537943663   13.10645559881294    5.71394375701713
C          -9.46436685346549   13.01932010749549    4.36196410599029
H          -3.04955851438145   -0.54873367539039   -6.64271009707693
H          -2.36237881336410   -4.87702397663193   -4.21263324279130
H          -1.96640347159560   -1.90617470230298   -8.84336850730906
H          -4.71513170312252   -1.11180313366971   -0.57414796620648
H          -4.80707911276559    1.01465295941079   -2.62125221880700
H          -6.98875480367379    4.26601563191682    0.26397177082403
H          -5.13706693286587    2.96494879461024   -2.94448295148026
H          -7.03546130221692    5.08563553271562   -1.83573374091087
H          -5.25222844755172    5.79308896884109   -7.11746679460316
H          -6.33356044923999    8.07772418098001   -7.24440109380603
H          -6.31775405710178    8.95233692028145   -5.70667113877654
H          -7.80151825467119    8.17590185192553   -6.26661193902401
H          -7.91099137320632    8.21904325499736   -3.89356204253532
H          -6.60674615475860    7.04311374723736   -1.39249327718989
H          -8.66059984206414    9.25851340456455   -1.91448495278563
H          -7.28145720337339    8.16605019211596    0.58266709616707
H         -10.37583082654324   10.09521193792966   -1.49039501423791
H         -12.14106471602312   11.77164101431893   -1.55624819178874
H         -12.63563296849125   13.17555529021054    0.39270606347574
H         -11.35443439394249   12.93532943663689    2.47080374484642
H          -7.28842876305728    9.52081783063866    4.02292586210315
H          -6.90240635064282    8.46084594568573    2.58675900537544
H          -7.27404020536620   12.30156092137575    7.78607775769152
H          -8.88949771213409   11.70653035641674    8.22990826087372
H          -8.24821855029214   14.49981066575967    7.18214859217651
H          -9.86465249653850   13.90564197064109    7.63194288802054
H          -9.86436005721657   13.76902043179502    3.71224969180737
