95
 SCF done       -172.736904638065          0.000504639421
C         -11.30447244670189    3.63262934047503   -7.38734212697399
C         -11.38223930848036    2.34441001398006   -7.85872937523917
C         -10.94809541797746    1.94119309068469   -9.13749921657882
N         -10.61824885084936    1.54527268389377  -10.16414517460754
C         -11.89345618163303    1.23754686562089   -7.15188312027466
N         -12.28890778069118    0.28044669850841   -6.65369553188985
C         -10.76070518614163    4.76512972160419   -8.13341498920107
C         -10.82517203236409    5.91932120785178   -7.31677901359384
C         -10.38784115996774    7.15189523248004   -7.73521381759369
C          -9.86165569206339    7.25302219649019   -9.02733096195967
C          -9.80244201926225    6.09550477635052   -9.83796066815427
C         -10.24348612144333    4.84802536125253   -9.41265490355671
S          -9.12057609604249    6.44372303839432  -11.39864027993913
C          -8.92728222140697    8.11656163438383  -10.94460079846485
C          -9.35047816273003    8.40235988564904   -9.69097637476277
Br         -8.18723028308114    9.32649928512124  -12.17231411069538
C         -11.42164047238963    5.56355867843622   -6.01268776108228
O         -11.61061114986358    6.32865403976842   -5.08730263096955
C         -11.72449234277874    4.11746255001103   -6.09146714614140
C         -12.32223580786710    3.38753735638456   -5.09134420547224
C         -12.71797986188674    3.92294963579472   -3.85705715552546
C         -13.33219899182286    3.18939559038699   -2.88032716928006
C         -13.73040730906915    3.76687708408109   -1.66184966914840
O         -13.49318913683019    5.08394457869453   -1.42401710052552
C         -13.98422569623907    5.40105263066670   -0.20732096576942
C         -14.56537462860135    4.26950233073133    0.36240567706726
C         -14.39788686723389    3.22173062209792   -0.55899293821931
O         -14.79879272542285    1.94408501747832   -0.42568582926211
O         -15.19818940101786    4.14232169303369    1.55842880066563
C         -13.85092911259773    6.72099373361638    0.28909384504776
C         -13.24931249985019    7.70769522820727   -0.42302567399534
C         -13.06422054685734    9.02575724264261    0.05641856807709
C         -12.42512763389935    9.98648140810144   -0.65056943434115
N         -12.22607315125264   11.23478406968627   -0.14354080058161
C         -11.57221888113074   12.26893223469459   -0.71329585256821
S         -10.93918638958805   12.18283102974934   -2.32156481140988
C         -10.34665754881859   13.81153244780653   -2.15570526723055
N          -9.66911539854130   14.35692312925356   -3.24287295495667
O          -9.24675445672985   15.49673006853296   -3.14051214340398
O          -9.54637731540211   13.64287372709729   -4.22819158941683
C         -10.62160473145969   14.37428195054027   -0.93742680636282
C         -11.32696894567820   13.50779298865930   -0.08257680266083
C         -11.74742598222138   13.76229896956064    1.25571814498622
C         -11.52677789735244   14.87377439990502    2.00362658503463
C         -11.94553734719088   15.03405702009537    3.34437079167224
C         -12.67848978251175   14.19008165949739    4.14106711610584
C         -12.99593726970642   14.43989576026850    5.50368685130957
C         -13.73082205498378   13.47269386252189    6.11437304102676
C         -14.06688347276415   12.38579169226005    5.27431919356126
S         -13.38908101912515   12.64567762467341    3.67955431567539
C         -14.81342208002370   11.26967541620930    5.57404403524793
C         -15.37942424317906   10.92271726045819    6.82522957465793
C         -16.09341944046647    9.76903699450104    6.81106326033595
C         -16.15772811095698    9.12710536065130    5.54307186612110
S         -15.21634649212609   10.05419170934279    4.37371790630851
C         -16.87038497501797    8.00440336161399    5.24490427731922
C         -16.98744141094809    7.43307513136888    3.94893972165211
C         -17.81073011521426    6.41129593871337    3.63494343969209
C         -18.67696357249793    5.73370327230268    4.65643689437561
C         -18.00040514050324    5.89015154065918    2.23957654318513
N         -17.11087415679448    6.45608517745273    1.24612793745439
C         -17.20477994214783    5.96217961722973   -0.05065208462081
C         -16.90252252540086    6.64827363920609   -1.14350227593190
H         -10.45036916067670    8.01201624640498   -7.08710459020788
H         -10.17600360276155    3.99814954729949  -10.07070350699663
H          -9.30545832380697    9.38126588100944   -9.24948296505913
H         -12.51418603312415    2.33499219349676   -5.25472125650782
H         -12.53412258388691    4.97051663384686   -3.67271796768012
H         -13.54304037014795    2.13746964384867   -3.00947479388968
H         -15.22027414188458    1.84642886089270    0.43859139707509
H         -15.43671401124846    5.02260610275647    1.88133573401974
H         -14.24038792519149    6.91497428741738    1.27853977452270
H         -12.87411666091164    7.47531175871841   -1.40909373149946
H         -13.43860178408858    9.26035325863439    1.04587956683845
H         -12.03397585033333    9.80426219774762   -1.64057624390576
H         -12.58611364602520   11.39161942050161    0.79251209321669
H         -10.31730988267118   15.37372447502889   -0.68792999434900
H         -12.28400718163894   12.95592711818841    1.72834072163033
H         -10.97722316435385   15.70103365021959    1.57795940021219
H         -11.63835738212030   15.95282815924316    3.82806910356183
H         -12.65983683385730   15.33850536118177    5.99080824178251
H         -14.04957829478863   13.51518652500633    7.14034924736873
H         -15.23849938208568   11.53787092669001    7.69579521906818
H         -16.59549439391698    9.35310454048634    7.66681121731998
H         -17.41656176435194    7.55072911872583    6.05902406735094
H         -16.38107506879626    7.89684793776096    3.18217695602224
H         -19.40101607564555    6.43317875480176    5.07379182553311
H         -18.07471816328136    5.34739482274147    5.47712559284129
H         -19.22201034236762    4.90486961814827    4.21215367858334
H         -19.06214079418366    6.05286163745017    1.97550310098041
H         -17.84316561579223    4.80363980844451    2.24393681199948
H         -17.09177393575303    7.46903454443416    1.26035274083039
H         -17.49047365961367    4.91999939539256   -0.10602340416464
H         -16.61415242122786    7.68466329711054   -1.10136355044718
H         -16.91121455477824    6.18536676807157   -2.11139334024289
