86
 SCF done       -166.728323563181          0.000940295804
C         -14.42814136954859    4.23775323624931   -0.58626789247746
C         -14.99552873414122    3.20418026815759    0.11651204458195
C         -16.37370978923946    3.09143785201138    0.38529273122736
N         -17.48573209656500    2.94924825532039    0.63372859327709
C         -14.27030045311961    2.13050587979632    0.67018614752692
N         -13.72383762324249    1.23888261333377    1.14416555340732
C         -15.14497824612737    5.37795443719035   -1.15204182158132
C         -14.21019448188727    6.24815799568846   -1.77007762201513
C         -14.58243078680850    7.41240955615333   -2.39674392965324
C         -15.94317042548750    7.73631551912076   -2.41671102755300
C         -16.86846564724206    6.86344088222199   -1.79781741692871
C         -16.49160271084087    5.68537425142132   -1.16292637759459
S         -18.49640540528251    7.45204561342675   -1.94139966779522
C         -17.92002548880616    8.84428551627560   -2.81891772913446
C         -16.57778843613908    8.86888760261341   -2.99621478004441
Br        -19.14356907857719   10.13241792611991   -3.42083900711085
C         -12.86441102530254    5.68157030844892   -1.61536453159509
O         -11.80774651149893    6.15429086547725   -2.02567966727940
C         -13.02899791944382    4.42385328572048   -0.88794067324358
C         -11.96261326814887    3.59907776488153   -0.61105370709205
N         -10.71995208511345    3.94908214371916   -0.95064219100356
C          -9.59055051442559    3.21673233789711   -0.75836245749083
S          -9.64910992398371    1.68561380839248    0.05053792474223
C          -7.93280409761136    1.55956954118863   -0.09212905702094
N          -7.31621720366233    0.37543886286614    0.31681268476726
O          -6.10351357388667    0.30308167702673    0.21986404375778
O          -8.03923561717563   -0.51499192468833    0.73182614413115
C          -7.35706846348036    2.63779487348206   -0.70890161898766
C          -8.29582287467489    3.60014007305077   -1.12474740263656
C          -7.88518277176880    4.75797172303115   -1.87990965794409
C          -8.60859280852346    5.46666962988131   -2.76665430367326
C          -8.02718151025437    6.51387102131689   -3.55364011547378
C          -8.65234549343621    7.21629415740701   -4.51523090660865
C         -10.09475777659215    7.05941913676911   -4.87477463412300
C          -7.82226232936950    8.06366727723686   -5.44804013798666
N          -7.34603273549656    7.18784756296742   -6.50894722805332
C          -8.09208466792904    6.91440980625620   -7.60719111264123
C          -8.11692579217370    5.69190391924175   -8.20070920501368
C          -8.77013747299072    5.38096486725361   -9.40623108630041
C          -8.95320142383334    4.09262619511476   -9.84122520325603
C          -9.52590536415774    3.64577962249920  -11.05529496621406
C          -9.59699596932017    2.28989058233635  -11.17642724349290
C          -9.11597991007806    1.58885019477646  -10.04797103908167
S          -8.51348086506469    2.70351765111377   -8.84923201697121
C          -9.12044438852630    0.22638750566414   -9.80902014940522
C          -9.48227747050664   -0.82292163093545  -10.67846252908699
C          -9.38668218602097   -2.05962722494791  -10.11530670402596
C          -8.97406251663570   -2.05382943444815   -8.75716855134340
S          -8.66949654637492   -0.40916068508901   -8.23931308196531
C          -8.81980748732487   -3.17026534967695   -7.97360491680244
C          -8.52981063036710   -3.22120902183157   -6.59619986911372
S          -8.12602824496850   -4.76482145750667   -5.85002525994575
C          -7.97585177701339   -4.11783751641185   -4.26448203423073
C          -8.22377398320530   -2.76660116857971   -4.28138095146491
C          -8.52784543246298   -2.26930506138837   -5.59094087340877
O          -8.80983306256349   -0.94870135400481   -5.54084382466210
C          -8.68274825233868   -0.59848130082210   -4.23360204667340
N          -8.93384609433355    0.73417102894562   -3.88658722212503
O          -8.83524719804596    1.01678214647754   -2.69689894018157
O          -9.23524708022257    1.53095746026189   -4.75305767724366
C          -8.33080025857730   -1.64596052526857   -3.41772379981516
H         -13.84862116597433    8.05524125848948   -2.85721978892521
H         -17.23542836202638    5.05330679404417   -0.70783623518213
H         -16.05572234836760    9.65237229420991   -3.51432033771929
H         -12.08888090861408    2.64258710025470   -0.12080532385943
H         -10.63738373456455    4.87136678065285   -1.40335750684564
H          -6.29947729799190    2.70114462964308   -0.89145570169724
H          -6.83771225710473    5.00721361329440   -1.75919107050303
H          -9.62989950732388    5.20917083108370   -2.99332499694081
H          -6.97660117465243    6.71051046304037   -3.37144204463775
H         -10.69692559344624    6.83195858980572   -4.00026714970858
H         -10.21882626600839    6.25123491956453   -5.59836919938810
H         -10.47428521869934    7.97282656038655   -5.32794626430181
H          -6.95259487802755    8.48514450173347   -4.93679747382522
H          -8.40140922361032    8.87186304422533   -5.89694360673253
H          -6.83612523698322    6.38826969322706   -6.14984177895590
H          -8.65202796082064    7.74789515044960   -8.00978123361060
H          -7.61292527473451    4.87357174556712   -7.70060790217891
H          -9.15862443586047    6.18595465657568  -10.01547985196926
H          -9.86281782281302    4.34110000153659  -11.80440225815076
H         -10.00246108941243    1.77778750568391  -12.03071237078440
H          -9.79161912753774   -0.64167369275509  -11.69245852390522
H          -9.61571997715205   -2.97991166405846  -10.62299804730937
H          -8.93420798420224   -4.12851546553854   -8.46202956900632
H          -7.73008005036386   -4.75429067492145   -3.44118953342879
H          -8.18604972501142   -1.60707940356813   -2.35774224393093
