113
 SCF done       -215.621321298175          0.000864538659
C          -4.17556605489563   -0.11091522309973   -4.27694424889955
C          -5.01294717621998   -0.98218875919643   -4.92116540230508
C          -4.57635390682243   -2.11595078673499   -5.63969069895634
N          -4.28712019791788   -3.05354949225037   -6.23543876504273
C          -6.42151789780288   -0.89907781181389   -4.94434949728049
N          -7.56795231222623   -0.90850433035848   -5.01305054634396
C          -2.72093629765057   -0.19839246852802   -4.24325815591999
C          -2.21570909173173    0.82626974835051   -3.40490360934996
C          -0.87268535064205    1.00206762810887   -3.17752857158427
C           0.01767595782197    0.13515205409572   -3.81944821061652
C          -0.49545220141837   -0.88474625742823   -4.65673905605321
C          -1.85368232366393   -1.06966439139736   -4.87832212384953
S           0.77750404419443   -1.84298047004565   -5.35064680955105
C           1.96484384524092   -0.87235746926454   -4.52109228827550
C           1.43797609192169    0.11742888075420   -3.76150599115273
Br          3.78702477279562   -1.25849292143924   -4.73478721366203
C          -3.33990181844446    1.60649905471418   -2.85274599131084
O          -3.28837784775164    2.42108693938547   -1.95981606585886
C          -4.55878091099734    1.06964342948625   -3.51770038131368
C          -5.80927872674321    1.56895768504263   -3.36431839513804
C          -6.12959298602870    2.85082975973582   -2.80488327582406
C          -7.33069905457650    3.03159051124450   -2.11681020630191
O          -8.02629876452067    1.89233742984442   -1.96178464103602
C          -9.39527110831574    1.82051130601340   -1.61507896695951
C          -7.70726467570536    4.31313595375672   -1.55151254446793
O          -8.88389737634272    4.28102254002366   -0.87134280221997
C          -9.60898974975877    5.45278475118899   -0.57507814013341
C          -6.91035458255064    5.42760563357941   -1.71138123416264
C          -5.72499234205994    5.26732431540121   -2.47864887926935
C          -5.32860498362275    3.99789207197414   -3.01756664030611
N          -4.22901041769965    4.19524730101837   -3.71404420419724
O          -3.94336558735739    5.49217001001114   -3.59695423537389
N          -4.82780743376607    6.15586813579933   -2.85364623288808
C          -7.05050565529887    6.72345104684524   -1.03316650194717
C          -6.94262576630634    6.77902184397055    0.32152034838489
S          -6.81748297522497    8.37171393688307    0.95896784308118
C          -6.87984159015116    9.01582926876220   -0.65105206192899
C          -7.03932231396996    8.03176736745030   -1.63930748761923
C          -7.12219911181988    8.42521288482644   -2.99543427920767
C          -7.62189486064091    7.44446513134855   -4.02022561312130
C          -9.14932828532366    7.54217548465541   -4.10918869142131
C          -6.86268629324074    9.74560280867517   -3.35421165437049
C          -6.58833103960502   10.10560339806001   -4.79373501636028
C          -7.81608356695048   10.47373496880492   -5.63482316011920
C          -6.73988771878527   10.73930895043801   -2.35143731353265
C          -6.56922530972201   12.17693979602759   -2.44935957462100
C          -6.45012686475101   12.75803603908871   -1.20998657626498
S          -6.57177963542740   11.67665346995856    0.10257040842087
C          -6.76889804576162   10.34930321933918   -1.00356070259041
C          -6.61406556864343   12.97315124003330   -3.63845846849151
C          -6.16193103290202   14.24735046705303   -3.74611026528152
C          -6.26356184020624   14.99181324735997   -4.94376133727634
S          -6.67822954554531   14.21888121144184   -6.43162587511627
C          -6.58840417139587   15.69145572129982   -7.35025184232485
C          -6.23177512785132   16.76546539113446   -6.50208247291540
C          -6.05333761968539   16.36983019377801   -5.14486991873934
C          -5.72889884948381   17.36018444838635   -4.18184062395221
C          -5.56988798074597   17.07149627025834   -2.80941405558563
N          -5.43442978465436   16.89899851223799   -1.68277285643257
C          -5.57420071968206   18.67416832771089   -4.58268474311322
C          -5.74136170149773   19.04186028332494   -5.92183057797990
C          -6.07260921353867   18.11071203129674   -6.87214001337976
C          -6.71400185975817   15.74634472512408   -8.73987221886889
C          -7.08598927853925   14.78230319123785   -9.64346049264410
C          -7.76789457205079   13.52162707048223   -9.51425659468376
C          -8.75898944913551   13.21790163897857   -8.61053969977833
C          -9.42144067444323   11.97863900642234   -8.55324954409402
N          -9.95687593544268   10.96862545192504   -8.43923890250435
C          -9.28344553440052   14.16482676791449   -7.70989910257457
N          -9.76559072935728   14.93186646366306   -7.00379096850773
C          -7.43827521147321   12.72563914503590  -10.69406797728687
C          -6.78865945584644   13.56466003101033  -11.63390482852204
C          -6.61373873722668   14.90876556771692  -11.04263161036703
O          -6.13861458610605   15.89300736958267  -11.56549774829775
C          -6.39520423400566   13.11754938779623  -12.87071261892513
C          -6.64030584354199   11.77642131067197  -13.18793532310388
C          -7.27451000119404   10.94433355629976  -12.23592320541548
C          -7.68538365277392   11.39989135353885  -10.98819278315653
S          -7.46451308553258    9.32271805415902  -12.83075604509047
C          -6.70492014862851    9.77980927993637  -14.33232838260035
C          -6.32613775834855   11.07848138191127  -14.38650251765324
Br         -6.48210614703688    8.49847138140612  -15.68434921501521
H          -0.51994233140391    1.79065354117960   -2.53176490543511
H          -2.19387653161181   -1.86151750699408   -5.52447526390371
H           2.02519003260816    0.80790833837816   -3.18409101456767
H          -6.66467598948292    0.98775096962407   -3.68281908201035
H          -9.55626910995255    2.03822980078149   -0.55825934198075
H          -9.67249524022824    0.78652406800698   -1.82174495826600
H         -10.00501648420169    2.48789168240666   -2.22595734413499
H         -10.64547802629901    5.13034538331589   -0.46738989785035
H          -9.53625510856802    6.18787162201839   -1.37774654450925
H          -9.27375584923483    5.90779718294931    0.36005025950228
H          -6.86997314345493    5.94399952574301    0.99235084083179
H          -7.36201317196141    6.42555866716585   -3.74734206155939
H          -7.19466942349267    7.64208543171717   -5.00107360633979
H          -9.60612126570553    7.28585613484990   -3.15507210026925
H          -9.52525532709950    6.85740297648753   -4.86593904852470
H          -9.46298546932593    8.55007153469475   -4.36384546116054
H          -6.07368806343660    9.26951875570598   -5.27046322904350
H          -5.87945007876788   10.93511580565735   -4.79384477740119
H          -8.33228619527010    9.58728083837148   -5.98989519992937
H          -7.50922123102136   11.04516424229469   -6.50911697007075
H          -8.52940452169042   11.06763274098652   -5.06680241178122
H          -6.35163616212827   13.80551160531580   -1.00061105269283
H          -7.09407747933561   12.54817131229412   -4.50410039045361
H          -5.69926639088292   14.74052192840228   -2.90632416854899
H          -5.32645286960302   19.42371113814932   -3.84598997495110
H          -5.61450153629605   20.07657997018246   -6.20020597547865
H          -6.21612443449018   18.40669316951683   -7.89910632145475
H          -6.34801384372608   16.65716939393994   -9.20429562375863
H          -5.91309968979618   13.77883823001427  -13.57336661550192
H          -8.16337131131132   10.73058623842972  -10.29186568193406
H          -5.84402820378583   11.52788142478941  -15.23535518838844
