97
 SCF done       -174.757362785393          0.000362938552
C          -5.71032327217664    3.62439474228376    1.31561653536019
C          -5.44788925348805    2.32533099380984    1.69667256284565
C          -4.25523604987032    1.91072459200067    2.31829080828230
N          -3.30976559362414    1.50131639909854    2.82830445299039
C          -6.31454440699799    1.22568376772190    1.55144864654784
N          -6.94727532033693    0.26670615991575    1.48908879378090
C          -4.80304171158251    4.75436140123197    1.51717132276115
C          -5.43614223913515    5.93076118981732    1.04878561881433
C          -4.83843377821039    7.16460368739831    1.10150902622100
C          -3.54942079355462    7.24371213905383    1.64240452407595
C          -2.92523666612626    6.06413063877326    2.10566784971638
C          -3.53172688616002    4.81393699913192    2.05291545503888
S          -1.33572136385514    6.38566032856323    2.73332756897605
C          -1.53195544671528    8.07923615010028    2.36875995104683
C          -2.72312634041427    8.39000383793752    1.80666379385883
Br         -0.14326547914197    9.27809725862915    2.76539286987850
C          -6.77626853518265    5.58291039740625    0.52226344605492
O          -7.58477531263843    6.35983076586783    0.04924057944946
C          -6.90022749707324    4.12707401917378    0.68936971083069
C          -7.98798114638503    3.37541196294240    0.27845658695564
C          -9.15083053772525    3.86885049180503   -0.29157983390588
C         -10.18666695468662    3.03317184861622   -0.68278764908612
C         -11.43657127094414    3.39846213068023   -1.22147154797169
C         -12.26229630565114    2.33958790683717   -1.49103064723624
C         -11.69364395016962    1.09173436165766   -1.18426806236784
S         -10.07966405933831    1.29547347862693   -0.54135192624605
C         -12.22548292824548   -0.18336412451368   -1.31889346821481
C         -13.50939456115755   -0.58606042478475   -1.73746249069448
C         -13.68705893561599   -1.93901565191119   -1.72483783652456
C         -12.55873335661731   -2.67936151883557   -1.29054139821531
S         -11.25285910068193   -1.57061259573777   -0.91830671127341
C         -12.48009452482638   -4.05275786404750   -1.27681093228660
C         -11.44286857083672   -4.91232388253687   -0.87497518423299
S         -11.42955947670347   -6.49601238190833   -1.62581939580134
C          -9.96730708013525   -6.95101825478010   -0.80145889814285
C          -9.54895972053899   -5.92873858525012    0.05309324162657
C         -10.38069608764397   -4.80268234968747    0.02793638551164
C         -10.19165059273901   -3.68025591728885    0.99538177079617
C          -9.39785862742971   -4.14772617156414    2.20997675630193
C          -8.06826534286027   -4.74197602216742    1.73048897727040
N          -7.12181617162506   -5.05931061406820    2.78514833031719
C          -8.34482276593524   -6.02301734525322    0.93530616052934
C          -9.43326871180148   -8.22650856624253   -1.10946313199075
C          -8.29758216342852   -8.79367776839671   -0.63262650724789
C          -7.80869840106125  -10.06065527975803   -1.02986244860986
S          -8.62087746895647  -11.13893937136158   -2.15093050860551
C          -7.36121294297613  -12.31031381170918   -2.05534270893305
C          -6.36112748325393  -11.91724732304838   -1.21645601932582
C          -6.62475339949560  -10.64175236610814   -0.63461860299969
S          -5.37299341892492  -10.07660767797456    0.44202740156535
C          -4.46056055512209  -11.53530292136978    0.12761654689514
C          -5.09792020956968  -12.43702389938617   -0.77009564661170
C          -4.34701636836989  -13.55544561842176   -0.98915177097950
S          -2.86477876307561  -13.51743442280443   -0.11016597773722
C          -3.22931257017682  -11.95176105123100    0.59307412008830
C          -2.39259308742508  -11.24896273353118    1.47992865705069
C          -1.16126938200483  -11.61667225734124    1.94177956422502
C          -0.35860474748006  -10.85829504279647    2.83941581250399
C           0.83129532480145  -11.43045891532216    3.14727014290373
C           1.05145973982317  -12.68055033865856    2.51258854537580
S          -0.32796786991015  -13.09937193267637    1.50743207795689
C           2.15074015502883  -13.49509535752476    2.61648730511160
C           3.32131262823921  -13.27067905156185    3.39700240578718
C           4.24880069681501  -14.24736539087777    3.30411110488443
C           3.88512232330395  -15.33121277753284    2.43543109994054
S           2.28125883669608  -15.01497711768081    1.75283561848839
C           4.60061889437064  -16.42662476888374    2.14906244029086
H          -5.34671740451059    8.04346870546424    0.73685947404333
H          -3.01151530440707    3.94453942192754    2.41823831662911
H          -3.00997744330665    9.38493091391676    1.51872804989211
H          -7.93356191058993    2.30139407589496    0.41207347862275
H          -9.26680766823065    4.93351090345892   -0.43061355228093
H         -11.69520360231050    4.42905755961789   -1.38807291615814
H         -13.25243527599209    2.43225867498905   -1.90070205874045
H         -14.26348474451013    0.12294610715142   -2.02801501397880
H         -14.60020453911327   -2.43165246920657   -2.00966638080195
H         -13.32771890792299   -4.55608526867946   -1.72963089594958
H         -11.16385612443182   -3.28601025919687    1.29772124807215
H          -9.63460181371206   -2.86882660209943    0.52006690887959
H          -9.96034070318419   -4.90326619640787    2.76580959834379
H          -9.21275866211204   -3.29907924156001    2.87115384628496
H          -7.57962736907474   -4.01075837087708    1.07683852410984
H          -7.56115063672257   -5.63908628386766    3.49350234264839
H          -6.79639115713056   -4.21162606895301    3.23557617627833
H          -8.48493256339630   -6.84668895074494    1.64353220638695
H          -7.46149382605924   -6.25091183303656    0.33588155776118
H         -10.00974165602686   -8.79785634653520   -1.82851993015977
H          -7.67019081131307   -8.29164576363979    0.08610303031794
H          -7.43788948302803  -13.21365881009133   -2.62591226095885
H          -4.57047199715865  -14.39762816380847   -1.61188694453927
H          -2.78683835113519  -10.30031920032578    1.82420640195893
H          -0.69975803312348   -9.91210439878763    3.22117933157453
H           1.55932667961977  -10.99472282914110    3.80761512528548
H           3.42894387020462  -12.38720169158595    4.00104427196236
H           5.19284560867097  -14.25186482056793    3.81960729279798
H           5.57163360551456  -16.57788642141216    2.58658198484853
H           4.23376718354628  -17.18281455411848    1.47966552374933
