110
 SCF done       -204.400718133160          0.000593689851
C          -2.94402288060595    4.18810006071711    1.75074963656479
C          -1.90529319904261    3.46983089713278    1.21048196553428
C          -1.13865490880272    2.52701867849730    1.92507041815956
N          -0.47592744741980    1.74878458298293    2.44887549306512
C          -1.45062216588596    3.55034733829670   -0.12142784959570
N          -1.01823448690664    3.54458299327556   -1.18600100488272
C          -3.40886541216506    4.07765531939048    3.13132767620592
C          -4.51381046708554    4.94429958744852    3.30908937431677
C          -5.17476776761161    5.06788634725144    4.50628082376438
C          -4.72271896269873    4.29980294204852    5.58453762613526
C          -3.61752420633722    3.43717419122846    5.39853515857522
C          -2.94995374782092    3.31120789466651    4.18621010795031
S          -3.22132310305567    2.58189453270323    6.85919803369790
C          -4.52830902360185    3.38524001418122    7.68753031250845
C          -5.22677459206084    4.24877474753638    6.91327722201157
Br         -4.84800738362778    3.00924994884915    9.49772498639357
C          -4.79355949309960    5.64798156703488    2.03952366854278
O          -5.68362615026879    6.45452981248860    1.85431959833264
C          -3.77660627187442    5.16365456318317    1.08171824427570
C          -3.64931448417776    5.59874265315343   -0.21522359162644
C          -4.47684931338367    6.55175771329162   -0.82886908505814
C          -4.27932733241585    6.95603624554732   -2.11985849006152
C          -5.08239042934378    7.90710622216896   -2.77027928871623
O          -6.14198275979301    8.48931999380025   -2.14879650795858
C          -6.72473555369683    9.35663793683383   -3.00997181202457
C          -6.02631327335223    9.33975812425812   -4.21926855879668
C          -4.98015710684025    8.41562178975863   -4.07142708863859
O          -4.05451037233732    8.07111618352854   -4.98160696089901
O          -6.25466284021654   10.04324276566787   -5.36013224458993
C          -7.87277359148999   10.08913828859830   -2.63046118309378
C          -8.47765356176671    9.95551436352112   -1.41707690290706
C          -9.65144591408079   10.64056917031163   -1.04692465943587
C         -10.29459539537290   10.42880548078780    0.13589316144388
C         -11.51092921095125   11.03306493978732    0.50935971255530
S         -12.29925923881904   12.21362494146179   -0.50339659201510
C         -13.66525698428893   12.30336652306343    0.57986202717206
C         -13.48583701476698   11.45253519497116    1.67652617645311
C         -12.27515853786866   10.76391422334608    1.64705226529516
C         -11.86602799308739    9.80822698365799    2.72346809782348
C         -12.70041528337979   10.02428846978234    3.98345908743454
C         -14.19690161495788   10.06830001475892    3.63619272588710
N         -15.08338282218287   10.09293444177798    4.78363332846851
C         -14.47920549563196   11.30800386257571    2.78166873104534
C         -14.78275286004030   13.10331311217299    0.30899856924676
C         -14.86512749470505   14.02818683514449   -0.70106255187604
C         -16.00332740255859   14.76034513152744   -1.05574331520978
C         -17.31837668891499   14.52687018938258   -0.70375915777181
C         -18.42336987394189   15.30717922990387   -1.11359017330968
C         -19.63931103818791   14.81484630896020   -0.73409835353561
C         -19.56016779249763   13.60961487577692   -0.00933650340897
S         -17.89472915378681   13.14477239562620    0.21169780345669
C         -20.59746568554175   12.82028461808736    0.46767707112694
C         -21.98208582058450   13.05177945810028    0.37280963445532
C         -22.74314935216304   12.04438505101576    0.89708900000280
C         -21.99486357271461   10.97170686787037    1.42477654204923
S         -20.28715228503608   11.29383132412058    1.26461421693264
C         -22.50003685213859    9.80834166062012    1.98112630443847
C         -21.70128912357191    8.76609440434819    2.42800333453267
C         -22.09078581892048    7.55451056926485    2.96520186870503
C         -23.35118565441917    7.07656565337133    3.45690574914342
C         -24.37935622557753    7.82217217496138    3.98999057963118
C         -25.58029134703883    7.27136848272584    4.47489604645459
N         -26.59049501686553    6.88354760342234    4.86150986047089
C         -24.32118732705018    9.20932524968167    4.22329871658334
N         -24.31926309768916   10.32849288763222    4.48373917298303
C         -23.27998850979266    5.61423463243533    3.49302292936181
C         -21.94538258718421    5.22076137719771    3.22658418812275
C         -21.13636741789245    6.42671089928310    2.94410347196078
O         -19.94816553225207    6.47596858493288    2.70242971293885
C         -21.55010968264662    3.90659952236101    3.21960091196780
C         -22.52149981095462    2.93114547844925    3.47361240486817
C         -23.85303003050833    3.33338008006528    3.72416245223325
C         -24.25133464004978    4.66587202923940    3.74270492664659
S         -24.89299071889615    1.96743837614212    3.99677263843330
C         -23.54024079496131    0.88963377459563    3.77566629365162
C         -22.37057424003797    1.51721054871568    3.51137336092006
Br        -23.80103877114577   -0.96370834692852    3.91233900019420
H          -6.01398789820187    5.73794504344157    4.60883473733708
H          -2.11240752535454    2.63998093434120    4.09815432239906
H          -6.06259134146309    4.82696887434376    7.26279601759062
H          -2.85104920328031    5.19099090653978   -0.82181486758742
H          -5.28955513944167    6.97808479085597   -0.26074680892825
H          -3.47035766239333    6.54865654982542   -2.71053193384733
H          -4.21829227262512    8.56941562222975   -5.79362107545632
H          -7.02453841718856   10.61063897723284   -5.24731945285619
H          -8.28443176474658   10.77029083596985   -3.36389761780581
H          -8.04748000078316    9.26416266719463   -0.70588511847486
H         -10.07543691200982   11.34301353605493   -1.75390988124557
H          -9.87597122331164    9.71650998859814    0.83412021615445
H         -10.80503077958905    9.93137170871777    2.95246026667605
H         -12.00797481557273    8.78448619928883    2.36173393492545
H         -12.41591327811877   10.96756745564758    4.45811780937714
H         -12.50575161327896    9.21677366046666    4.69315993072988
H         -14.45047350118836    9.17328239812500    3.05585623090820
H         -14.84220113454158   10.85789492189770    5.40532136108594
H         -15.02039382585933    9.22951934413119    5.31001185353064
H         -14.43908095119493   12.19528619316518    3.42284965301290
H         -15.49367945458669   11.24310055254713    2.38559015415441
H         -15.61660181423592   12.98190067174401    0.98450374560173
H         -13.96412129772276   14.23380118254332   -1.26611241548892
H         -15.85346736312218   15.58883228835817   -1.73707958428768
H         -18.28914247803288   16.20834786150223   -1.68588048808118
H         -20.58003029726283   15.27598563251521   -0.97437723111614
H         -22.38418824460886   13.94136628338007   -0.07767898666297
H         -23.81816901712642   12.04095137430417    0.91913508002954
H         -23.57585359573312    9.72184204418020    2.01365985540560
H         -20.63245142645845    8.85140176152957    2.25151731169158
H         -20.52479757221328    3.63628189048350    3.02126104796400
H         -25.27993272905775    4.92228340704742    3.93471752498437
H         -21.43883543553376    1.00702085514602    3.34795386123090
