129
 SCF done       -202.945629804874          0.000536345910
C           2.45382678481930    4.97303438238438   -3.01394575207003
C           3.45134596005973    5.17694668927626   -2.09614632951725
C           4.78301743660035    4.74561439432556   -2.26918649686491
N           5.88162186932133    4.42352964439625   -2.35621690534748
C           3.29249475504141    5.80718180888403   -0.84365298803973
N           3.24752309723132    6.28751407236533    0.19862373952333
C           2.59167671718029    4.23637192774186   -4.26297388940162
C           1.31349089472094    4.11468493942201   -4.85801444613438
C           1.10888209979008    3.46471640723631   -6.05061202697503
C           2.22102874156518    2.90413484948323   -6.68660479222491
C           3.49637484720092    3.03322744179044   -6.08643677861616
C           3.70289008084811    3.69266269129028   -4.88152241932351
S           4.73209138218388    2.27173596536751   -7.04235700735826
C           3.53445169080990    1.79459508487867   -8.21654752419024
C           2.27430409802937    2.18514049903068   -7.91204213274074
Br          4.06142434161679    0.82743275858636   -9.73455757116002
C           0.30180090334650    4.78081174913742   -4.01093325625958
O          -0.88034200754021    4.86712141680847   -4.26012717529010
C           1.06055158957652    5.36736386614957   -2.87615394377281
C           0.60373713011620    6.29160591641246   -1.98553866389175
C          -0.74401852401543    6.68265256910993   -1.69420190283606
C          -0.95782100865294    7.99203651763403   -1.21918390218447
C          -2.22927800420110    8.40442271671380   -0.92252794661448
C          -3.31691901804813    7.51695575608757   -1.04577221167950
C          -3.11060981540945    6.21017815321868   -1.46753327757763
C          -1.83367714633590    5.80365126623574   -1.79297948085030
C          -4.52079960241966    8.20743221336756   -0.64035159463500
C          -4.17928110359567    9.52399443845952   -0.28529879216360
C          -2.69466344869329    9.75269050868953   -0.42798938534172
C          -2.05670739186111   10.10201740194707    0.93017416222814
C          -2.34477376888778    9.06669148001588    2.01008367526669
C          -2.38586001541145   10.86675832148399   -1.44388159405246
C          -2.96028796647454   10.58202500536869   -2.82618860512348
C          -5.14050522197916   10.39843074014048    0.15538626544031
C          -6.46424041254996    9.96032648471722    0.29853968400731
C          -6.79335340067576    8.65086866983170   -0.06539239939424
C          -5.83751333968044    7.77697290313514   -0.54525698974738
C          -7.41241585735355   10.88143240707842    0.89721942119060
C          -8.46635355276041   10.54304439992397    1.65241253271106
C          -9.30719120120480   11.50923228998357    2.34241251928537
C          -8.85188685620943   12.71825605635248    2.89148606168773
N          -7.56282479237681   13.21100456286421    3.03807368767799
C          -6.41946017868718   12.39371838136089    3.39606227455338
C          -6.31756753178958   12.21225153884544    4.91019769955042
C          -7.66685308173891   14.50430745249575    3.53136640437135
C          -9.01838688727280   14.82702083508065    3.76643088938904
C          -9.78128348381867   13.68257405110104    3.35181451797782
C         -11.14376233633268   13.42311958546624    3.35993369219573
C         -11.58068506946372   12.19084885110444    2.91365249561319
C         -10.67885655687321   11.26232148626363    2.41608983957428
C          -9.36609315610098   16.05206596801587    4.32070493323756
C          -8.35505038065563   16.93551197779158    4.64168169534778
C          -7.02619405757298   16.63322999282611    4.36328393096913
C          -6.65047610697391   15.43227178772687    3.77337488453375
C          -5.26856770752287   15.21959450096364    3.33222416699710
C          -4.20449736922419   15.25088888297988    4.13867013818080
C          -2.81999014112517   15.05817757718280    3.74729469882809
C          -1.89567609456425   14.62279293784363    4.62790032911294
C          -0.47122211625268   14.34933563976500    4.20290905663466
C          -0.40940058149240   13.89933902500875    2.78205843217370
C           0.47571612148876   13.04488507658744    2.21184079250122
S           0.17324369781848   12.83373578561778    0.52822592483571
C          -1.18090652102854   13.89775600441116    0.60486461909961
C          -1.36707575759967   14.39107706076861    1.85428135776850
C          -2.41798869559166   15.34375326519879    2.31775868443733
C          -2.17611576235374   14.37544340551821    6.04090325773860
C          -1.93973752197392   13.20603932853143    6.72993004291793
C          -2.32588725797591   13.39184516130630    8.09764521727991
C          -2.29746027652885   12.54958286377023    9.17840290555323
C          -2.74856928981964   13.05654220877880   10.41323399797564
C          -2.84418116187691   12.47243557449922   11.66799015834919
C          -3.36783736434131   13.43217690375148   12.59149499269214
C          -3.59332675699750   14.60729302604277   11.90079030593373
C          -3.21960001460843   14.41879819386277   10.53151000413197
C          -3.24550755549921   15.26164874459663    9.45117378239515
C          -2.79826055208179   14.75245871045633    8.21606184329462
C          -2.69959655115834   15.33622516468585    6.96032363971130
C          -3.62391625084891   13.23102615809960   13.99752781435636
C          -3.40534540829187   12.10664409639670   14.67362873411314
H           0.12103479174544    3.38980921084800   -6.47756535990177
H           4.69472887703981    3.76999984225743   -4.46866199055518
H           1.41636204853646    1.97666293756267   -8.52479514555341
H           1.35323415817997    6.84954337430277   -1.43465788598778
H          -0.11774640883328    8.66453357822629   -1.11895756339204
H          -3.93581874327640    5.51806676916762   -1.53812575809867
H          -1.66391763738159    4.78407233835985   -2.09478147568941
H          -2.43200698895413   11.07567825761850    1.25310005592578
H          -0.97771606221032   10.19032133835589    0.79337090672570
H          -3.41491219424459    8.97649723900619    2.18471538791005
H          -1.86803139055074    9.36107336423825    2.94215061772572
H          -1.96035091497455    8.09112959242461    1.72081244143467
H          -1.30309155632929   10.98847833240387   -1.51369835395903
H          -2.80160436687306   11.80219799069083   -1.06444177173847
H          -2.54377151383383    9.66465549615169   -3.23609769788364
H          -2.72493007052085   11.39882056015674   -3.50470596286188
H          -4.04195981967910   10.47493257396286   -2.77809809552341
H          -4.88323057277434   11.41121927375605    0.43222627309305
H          -7.81907071856544    8.32445155230223    0.01862680314342
H          -6.10974762251620    6.77171948340817   -0.83034050694069
H          -7.16934229675297   11.93086156049207    0.78537263551463
H          -8.75681254412630    9.50480815841526    1.75004611520988
H          -5.50960566910750   12.87206672462221    3.02692416331832
H          -6.51847549480984   11.41685442188320    2.92641061933662
H          -6.18276092334425   13.17125050848652    5.40495896380755
H          -5.46712776579219   11.57867385193283    5.14791509278332
H          -7.22196636542651   11.74596668878659    5.29564264286283
H         -11.84028425928901   14.16800598485640    3.71309276578907
H         -12.63362490359862   11.95221642435019    2.92814860119698
H         -11.04958650186778   10.32428478860948    2.02770282605491
H         -10.40104663217033   16.30154125184040    4.49783511845236
H          -8.59469551616291   17.88831501640854    5.08998718367362
H          -6.25867638129743   17.36420095956267    4.57356727176220
H          -5.16676712202429   15.03886521587247    2.26832961722539
H          -4.38214985271641   15.35809058347039    5.20039965274984
H          -0.01026774465429   13.61597569505351    4.86654592156011
H           0.10122103157960   15.28131178913059    4.30599168836383
H           1.29549805327789   12.52571623283764    2.66679485872586
H          -1.74112735394389   14.09957202729795   -0.28649887592953
H          -3.27442331492301   15.31920569924957    1.64554972526578
H          -2.01131784403679   16.36323911297839    2.28046476769050
H          -1.55698991080150   12.28959398610292    6.31857884785856
H          -1.93986738758960   11.53210912683643    9.09992189451109
H          -2.57069805062196   11.46185290233598   11.91127137291637
H          -3.98404096513557   15.52005077442855   12.31290652178408
H          -3.59694124270043   16.28117436485873    9.53032174602096
H          -2.93163602530964   16.35832075218404    6.71714839467982
H          -4.02769985248637   14.09404112622156   14.51306509344206
H          -3.00282312899823   11.22384294215867   14.20721404038797
H          -3.61951257606724   12.03169965149639   15.72568409315384
