96
 SCF done       -198.962323756764          0.000624742258
C          -5.82991355634955    1.53506877384819    2.20799193424840
C          -6.26261045193344    0.98003010354930    3.38428937981858
C          -5.41093218269789    0.44353507354487    4.37150932842609
N          -4.77054742943748   -0.00851363348927    5.21012275638954
C          -7.61733025654099    0.88861471015120    3.76311521372552
N          -8.70727409987509    0.80214437761131    4.11325926196054
C          -4.44088179521209    1.67490297598477    1.78494443906757
C          -4.40130861817281    2.33815077885409    0.52866098619479
C          -3.22403802805043    2.60069430414997   -0.13208649845063
C          -2.03134721230978    2.19399537898958    0.47468864644513
C          -2.08023826492541    1.54309741024904    1.73189745993408
C          -3.26980793417299    1.27432393302163    2.39848000523892
S          -0.49236723696357    1.13501531690124    2.30019129838077
C           0.20535322192531    1.83102264523221    0.85720437329801
C          -0.70225854929396    2.34393887597034   -0.00581520297747
Br          2.06655106765137    1.81269810615790    0.63700608632035
C          -5.77224936532809    2.64664356803547    0.11660799411931
O          -6.14151417800634    3.23091269123805   -0.89857615593175
C          -6.64980137041463    2.11017944065414    1.16450447101045
C          -8.01605720803726    2.16152060049469    1.06198817147410
N          -8.59781682632797    2.76195560180440    0.01276959680113
C          -9.92746436083667    2.81643760891434   -0.24760982920332
S         -11.03499288212419    1.92918608913524    0.76070450179976
C         -12.35210297575476    2.49277311313511   -0.21312550167919
N         -13.64527241089417    2.06083135994605    0.12601461422462
O         -14.56766376586997    2.44253561938713   -0.56544083953057
O         -13.73627598170667    1.32525711896529    1.09172296274007
C         -11.96286775491731    3.31014546451479   -1.23349485136969
C         -10.56303337562249    3.52070805695644   -1.28422186296085
C         -10.02643868125057    4.38582921847358   -2.29310705303578
C          -8.73909663453612    4.71721951787304   -2.56444728278530
C          -8.30279174622967    5.60855411627408   -3.57512383248620
S          -6.62342592355550    5.53638523795924   -3.99735669221547
C          -6.77353297497070    6.72877829226241   -5.25113573855461
C          -8.10394113547304    7.19547920782547   -5.31288830694129
C          -8.96617846784708    6.58087257333325   -4.35521156267619
C         -10.28571611447379    7.03840085459970   -4.26333400713575
C         -10.77783444124613    8.00804167258533   -5.11093072028355
C         -12.20996710356109    8.39314272465165   -4.89131618500240
O         -12.87127699499426    7.86308407029910   -4.03641498778390
O         -12.72851754929797    9.33685887687781   -5.67468612892253
C          -9.92175882536920    8.56954082387069   -6.09746031762088
O         -10.41237794179823    9.52110979787381   -6.94982784843305
C          -8.60818913949008    8.17530007360359   -6.17841976793906
C          -5.69181619478563    7.12812366325249   -6.04422508847612
C          -4.41939019505419    6.65169270690938   -5.88569259229901
C          -3.29810185556923    7.01934699261674   -6.65384737962235
C          -2.02948764632564    6.44941354353787   -6.35067771285490
C          -0.84241012211955    6.75198082343463   -7.10332089313825
N           0.31308479873893    6.15853208929492   -6.79196954431300
C           0.36056618545784    5.32117935528312   -5.77744604155650
C          -0.80781224143704    5.05818995070537   -5.00151451659299
N          -1.95949454938866    5.61082296400591   -5.30835304292511
C          -0.74781148954124    4.20747841478491   -3.87416355392705
N          -0.68072461746343    3.52748169590140   -2.95386904665946
C           1.58394122452023    4.68494393309718   -5.45991709859069
N           2.55458983328079    4.14827011905291   -5.17099789009293
C          -0.84695377649693    7.68456808219509   -8.19038150239655
C          -2.11199693962564    8.26244520483960   -8.47713027353740
C          -3.30875363767434    7.93678475293144   -7.73652527015021
N          -4.36647017575363    8.59862925364452   -8.20110122602458
S          -3.91706430384244    9.53361227688696   -9.43688354518178
N          -2.35536160399454    9.14053590578954   -9.43978752917027
C           0.35822489403272    7.93551026391500   -8.85290451970715
C           0.69899244463319    8.79591068474323   -9.87795812966285
C           2.02504041681940    8.87945799579444  -10.37457094292328
C           2.20857805803390    9.80112714017162  -11.35969094017618
C           1.02687461727834   10.49755002271104  -11.69222385291930
S          -0.32149593229854    9.93045017741476  -10.72573435918381
C           0.87269062490328   11.50076144095927  -12.62950399769019
C           1.87325308669035   12.05662829140441  -13.47235453376268
C           1.43000670104087   13.04011248140503  -14.28892237343544
C           0.03396280061494   13.33605254920131  -14.15004612731317
S          -0.66532433834562   12.27543404337612  -12.91466911484178
C          -0.68192424070627   14.25403240250720  -14.81566833254196
H          -3.21463011003064    3.09968391795682   -1.08839732770419
H          -3.25650054172131    0.77063286015350    3.35049206384982
H          -0.45699492337868    2.80044061642270   -0.94814628959044
H          -8.66782831159902    1.72420665506872    1.80697297290808
H          -7.92304157238620    3.16079111547619   -0.65701550410216
H         -12.66436978044411    3.74850229427538   -1.92102645494575
H         -10.79636841482522    4.80399325289021   -2.92358114116180
H          -7.91537282779929    4.25935290956622   -2.03792280554725
H         -10.96123447235606    6.67594551397219   -3.50635594806069
H         -12.08520807414286    9.66793483966027   -6.32411498492609
H          -9.71781755853577    9.81245986235077   -7.55371202583740
H          -7.95609595780171    8.63044320153871   -6.91070672712485
H          -5.87637039257425    7.85532966432280   -6.82077234928118
H          -4.22445466767329    5.92876034039388   -5.10400803858866
H           1.18372356078368    7.34522137699786   -8.47047531261243
H           2.80497477247219    8.25212946414282   -9.97989589707681
H           3.15069563358927    9.99177141142897  -11.84125021080468
H           2.88944622290796   11.70628651461893  -13.44159360066172
H           2.03884040799679   13.57797767087370  -14.99340923521719
H          -0.21831297282742   14.87914951500823  -15.55825289432448
H          -1.73126438896219   14.39501525891943  -14.63203962471510
