112
 SCF done       -201.659478461395          0.000623783611
C          -3.55677044204932   -0.49272113490304   -3.18737576483736
C          -3.52960539339788   -1.60684505295195   -2.37795755439748
C          -3.00950434235491   -2.85517034516063   -2.77193160542836
N          -2.60453641734939   -3.89906202116540   -3.02912816649890
C          -4.00168277689245   -1.67525879719530   -1.05336229528030
N          -4.36101089471152   -1.81359250460656    0.03064671848233
C          -3.04677172827741   -0.44076244821399   -4.55687307891167
C          -3.22575437568791    0.87316499219365   -5.05463953220078
C          -2.85119958927055    1.24589734924175   -6.32099429026200
C          -2.27349603484089    0.27101278982839   -7.14289451772557
C          -2.09864707028080   -1.03792998219411   -6.63890685138437
C          -2.47508540921544   -1.41306352645973   -5.35358377020745
S          -1.37245547190292   -2.08589435407950   -7.82002095648120
C          -1.31653247557134   -0.76777321909241   -8.95974827231836
C          -1.81351028589448    0.39762171646996   -8.48242958113123
Br         -0.60914054697677   -1.05459337870151  -10.67374740781294
C          -3.86252178952530    1.69789442347773   -4.00961198948568
O          -4.15056518009581    2.88083956133731   -4.10394006855764
C          -4.07280134057155    0.81419466881708   -2.86632438790334
C          -4.69649435289194    1.15482738925147   -1.67831290491232
C          -5.26506615867064    2.34680657428293   -1.25903990519504
S          -5.32652638669219    3.83707446384241   -2.15732170084739
C          -6.22898536347297    4.64389568125258   -0.90924765883783
C          -6.48113446354033    3.77715657479807    0.19129756789011
C          -5.92294812762849    2.49219421805686    0.00185663286003
C          -6.05768822801499    1.53339025415452    1.01018031325610
C          -6.73175119367491    1.83033470101893    2.17534965027717
C          -6.83849778691235    0.79889533390578    3.25133684667178
C          -7.30678773700590    3.11014904593043    2.35450088493115
C          -8.04211024689407    3.43165478436917    3.61734478809164
C          -7.17692550988626    4.06409731080219    1.36913611455743
C          -6.65652373921917    5.96031110566142   -1.02635468458008
C          -6.33820818917232    6.79629129083788   -2.08197022831402
C          -6.81735639902456    8.08079875521637   -2.29756225323574
C          -7.82179771738155    8.77104708628728   -1.62598270020287
C          -8.28063917691017   10.05642476581395   -1.96838729978289
C          -9.35092964829847   10.49647852287076   -1.23131283285851
C          -9.78090163847094    9.57652938107825   -0.26642927872851
S          -8.77913538457340    8.15016797429940   -0.30100312238189
C         -10.86444734976198    9.66195164443272    0.60747571806975
C         -11.84607004339329   10.65771905045546    0.68988671190434
C         -12.82967939704778   10.38066962704257    1.60555613882188
C         -12.65475889974196    9.16570252614220    2.28935916653925
S         -11.19114047465524    8.38253101397564    1.75148651820195
C         -13.53056508613493    8.62068347751970    3.22088741163075
C         -13.37732578089668    7.45035424794210    3.93721813446110
S         -11.92975676202315    6.48505386238284    3.89678292643761
C         -12.57795601368456    5.28571658621355    4.98707400703684
C         -13.88000571686275    5.65578771927961    5.41265246580882
C         -14.33142879299925    6.86131173986861    4.82000240061236
C         -15.59952066427882    7.35192323000979    5.13795783087630
C         -16.39942178474770    6.69531442560365    6.04783642302510
C         -17.75719809806578    7.22968702016791    6.37635704149811
C         -15.92048188182612    5.53141360166489    6.69265179671561
C         -16.75758979011071    4.85060017106764    7.72791461786450
C         -14.67868358037381    5.02777623451953    6.37508725988924
C         -11.78067563863178    4.19475206636201    5.32022633101117
C         -12.19996192445452    2.97360049116996    5.80416528162386
C         -11.32945329560479    1.95167788652812    6.19469675082756
C         -10.01444511105158    2.05478871288266    6.59947587965492
C          -9.24679638751711    3.15881737875392    7.10770768239776
C          -9.72578656485216    4.27949432421812    7.74983025234877
C          -8.90803613079098    5.28980967467823    8.28664661851726
N          -8.28947534343546    6.15635077236502    8.71964778766338
C         -11.08426615510697    4.50379098907064    8.03659345996000
N         -12.16648724123191    4.71664958762450    8.35954939506825
C          -7.83899252370129    2.76129381286429    7.08621567258997
C          -7.76573911609226    1.37992601304334    6.78040219521665
C          -9.13050879622953    0.87333663088177    6.51557188181475
O          -9.45184407185402   -0.26262909725713    6.23510629216370
C          -6.57557641924884    0.69711405351406    6.73227120308817
C          -5.39936053301228    1.41649654979795    6.97842163992253
C          -5.48233155540502    2.79932387277879    7.26177406850206
C          -6.68927144385703    3.48753876893172    7.32576677569138
S          -3.91016891133886    3.49573853016367    7.51582281891371
C          -3.17334610034308    1.93826381751634    7.24492843616689
C          -4.05643236072800    0.94804358713071    6.97612947037607
Br         -1.30667955977704    1.77022546169422    7.34373641780049
H          -3.00064659694679    2.25559934072680   -6.67010933768437
H          -2.32021211086431   -2.42490983035807   -5.01886880306382
H          -1.85623033881676    1.30925429934915   -9.05002099726370
H          -4.77890321075678    0.35833735872728   -0.95275621225477
H          -5.62929570068039    0.54946292222943    0.89243872255978
H          -6.35847415486306   -0.12622555389941    2.94496697899095
H          -7.87984296957658    0.58623517692375    3.49037013826684
H          -6.35990952084566    1.15451749885019    4.16360403430428
H          -7.36527753759926    3.38661153768796    4.47102176900754
H          -8.84176958268162    2.71172090053030    3.79297619969455
H          -8.47194426523851    4.42951715784614    3.56740931496534
H          -7.61462042672631    5.04102621693406    1.51035820409334
H          -7.26376239104794    6.33993201459745   -0.21842222993586
H          -5.64174599109285    6.41226441579283   -2.81669389818134
H          -6.39379987211813    8.62030476697731   -3.13574556503194
H          -7.82155789694087   10.62428840135539   -2.75841511116486
H          -9.82969005581500   11.44859404957355   -1.37189850115014
H         -11.82696977149950   11.53715755420973    0.07204609976729
H         -13.67335061333409   11.01983409793651    1.79736106656877
H         -14.44200127850235    9.17920984736986    3.38751877286998
H         -15.95543909867128    8.26080533635978    4.67616822049850
H         -17.97742193673917    8.11653395640355    5.78787198863306
H         -17.82050403927581    7.48998881267706    7.43230519851804
H         -18.52200802633700    6.48045808605223    6.17543315786524
H         -16.99675068029779    5.53794013848416    8.53809156344363
H         -16.23104026826384    3.99686001938080    8.14480314348608
H         -17.69771661152934    4.50638281335238    7.29745238895969
H         -14.29997435559877    4.17174626686011    6.90683773684180
H         -10.72482428677174    4.30171968818854    5.09567684642240
H         -13.25332825491869    2.73727093987174    5.77356431057384
H         -11.69802873967757    0.93314288724942    6.12617149344935
H          -6.54921118274081   -0.35817990126493    6.51023147020459
H          -6.70301407105226    4.54250458777004    7.54406845265083
H          -3.77549984799519   -0.07111981857443    6.78305564688049
