120
 SCF done       -225.565427346597          0.000880680898
C          -3.80126115161544   -1.45986527193038    2.50084336314630
C          -2.49251749047541   -1.73888559236846    2.78860991489287
C          -2.06059830647881   -2.91812557603458    3.43116209401695
N          -1.65868302933745   -3.86385038969418    3.94236243205641
C          -1.41309610424422   -0.86861358897304    2.52312822391510
N          -0.49340514081047   -0.20291718783847    2.35366731171240
C          -4.95075430299976   -2.28032793849157    2.85104750953202
C          -6.13143341618026   -1.55558596309794    2.55618521649036
C          -7.38733548955371   -2.06953402631042    2.77175735578588
C          -7.48215523488388   -3.36096899917114    3.29993947655506
C          -6.29610347061252   -4.07912007058291    3.58756820576276
C          -5.02651033149357   -3.55882432438783    3.37289925082495
S          -6.64324472872553   -5.65923222217220    4.22096736699154
C          -8.35250858676109   -5.33830334162616    4.09470569848914
C          -8.65050437108725   -4.11175965275323    3.60382135124554
Br         -9.58166675755337   -6.65419923962628    4.61840952233228
C          -5.78114632317126   -0.23569328885401    1.99197583893164
O          -6.56163391876963    0.62338581333208    1.64851590305055
C          -4.29746858240261   -0.24528332382856    1.87032807653163
C          -3.56899829618325    0.58174559013560    1.07782608306052
C          -4.02202957752197    1.79903907865444    0.45646864094999
C          -4.84647040834402    2.71379114030988    1.12781202632181
C          -5.25708253894719    3.84776766880044    0.47188762208602
C          -4.88376290796825    4.07797201174041   -0.86500723941886
C          -4.03921223343905    3.19380083988181   -1.52569707666886
C          -3.59373755208863    2.07825790512992   -0.85103488805892
C          -5.48512576863774    5.31527511966328   -1.30448272321139
C          -6.19966076144837    5.87318462080436   -0.22711147759633
C          -6.12078233775921    4.97484927746107    0.98495191792401
C          -7.51798040445056    4.47052556780701    1.39534401520156
C          -8.20005872379829    3.65468836083652    0.30413212046836
C          -5.46146919667241    5.69125721821138    2.17851332813290
C          -4.07697173346178    6.23843936679297    1.85310422923668
C          -6.84350657634771    7.07703257210869   -0.36407905898311
C          -6.81362298463986    7.74073970815822   -1.60279841918251
C          -6.14179233211794    7.14205650819258   -2.68196798739325
C          -5.46408696586218    5.95069250029691   -2.53993833369513
C          -7.44167085197720    9.01818168479500   -1.80831760487557
C          -7.73847551280207    9.90254945105223   -0.82660995029679
C          -8.31763592156753   11.18715442384218   -1.02416315086394
C          -8.36267218945910   12.10339373152533    0.05704689649774
C          -8.87305444935207   13.44590010742788   -0.07908767651507
N          -8.83877011899670   14.26950099648187    0.96495963825674
C          -8.36328709296481   13.86103109834855    2.12456142503095
C          -7.89270136977495   12.52178648916620    2.26503444393774
N          -7.89508483417004   11.69421683385414    1.24761430336913
C          -7.41574845405574   12.05563058300888    3.51723569921025
N          -7.03522505484440   11.69012947975174    4.53358036334464
C          -8.33585078449197   14.76339875173265    3.21304870785434
N          -8.31032806604267   15.46997043824612    4.11530819981826
C          -9.43180686147498   13.92172948612258   -1.29749081148219
C          -9.43285416293936   12.97625411293321   -2.36353760197765
C          -8.86900286619139   11.65474563257336   -2.24190810094003
N          -8.96807236890592   10.97643742361912   -3.38577530740407
S          -9.69083815161588   11.89541787253473   -4.48999281068090
N          -9.91488878492325   13.20424729239928   -3.58061870097611
C          -9.97486729776723   15.19057487168878   -1.53136272923470
C          -9.99584428286428   16.34911236352569   -0.77752835447409
C         -10.59743810261230   17.54332449578143   -1.24702903727506
C         -10.43916974920146   18.62202777670234   -0.42623929487566
C          -9.68457079087307   18.32449306710275    0.72371171122244
S          -9.24846856507181   16.63294241179646    0.77392717836824
C          -9.26621029603746   19.19107699606334    1.72701960909058
C          -9.57543907673745   20.55657293156565    1.88909382485561
C          -8.95162933818971   21.13371900003506    2.95794030304064
C          -8.11440627627906   20.25037072821917    3.67571634621198
S          -8.16964303182999   18.65371662832091    2.97151445004500
C          -7.28616144069108   20.58198058589342    4.73165956113431
C          -6.43763124239707   19.67510782389489    5.36082717544241
C          -5.44664392122879   19.95237255573495    6.27608918880510
C          -4.81465171613818   21.18548098121548    6.65791350668549
C          -4.69482984116028   22.32697422261030    5.89725882632468
C          -4.02948922001047   23.49119386838739    6.32755914645333
N          -3.52025209810784   24.47602367939275    6.62822593642311
C          -5.11011954046634   22.44226876412673    4.55624711842225
N          -5.37608936717789   22.59077275703167    3.44844441054532
C          -4.10199338243558   20.94246750475962    7.91243448066284
C          -4.12517091517855   19.55151942862242    8.18337588376829
C          -4.91441854822790   18.86756930228720    7.13622058527222
O          -5.11111674631531   17.67968657369930    7.01677284464249
C          -3.49201461989993   18.99965375939996    9.26909469452889
C          -2.81061489149979   19.86233644188606   10.13531181979362
C          -2.80717358939825   21.25063172605266    9.86518892495987
C          -3.44298648307157   21.80899228152563    8.76186048233803
S          -1.91231558437006   22.13311936355377   11.06511543478227
C          -1.55447500745980   20.64372365682054   11.89859744270735
C          -2.07969400137272   19.54221018089795   11.31248274335262
Br         -0.52091075547341   20.68512442042772   13.46333738410308
H          -8.26898911565420   -1.49387414446695    2.53736813672879
H          -4.15213490134868   -4.14587412200269    3.59949433094519
H          -9.65231064679013   -3.75062483160635    3.45922763707775
H          -2.56058829926336    0.27899186989258    0.81840458870393
H          -5.12012696035391    2.53573858811396    2.15503576292167
H          -3.72962096567946    3.38069931942402   -2.54278493439732
H          -2.93469887558392    1.37788989860418   -1.34359198173707
H          -8.13567489869743    5.33443491221492    1.65013432327356
H          -7.41768880811472    3.85200082373311    2.28866928329681
H          -8.25141990554800    4.21588831695088   -0.62691648130346
H          -9.21253601089130    3.40181919453062    0.60964085704015
H          -7.65747191521331    2.72942671414270    0.12785755398682
H          -5.38643959593537    4.98661247539284    3.00896660494464
H          -6.10966641227371    6.51091215739161    2.49471375089088
H          -3.40285098901234    5.43547708040646    1.56253972478245
H          -3.66053663213431    6.73835792984324    2.72422192064962
H          -4.12770612499967    6.95643128311809    1.03739951427771
H          -7.38980393491244    7.50607672970134    0.46171146270496
H          -6.14005764447563    7.65027241845647   -3.63539657093227
H          -4.93296130542250    5.51713214210736   -3.37395658343410
H          -7.63504704528753    9.30121227932054   -2.83388478165036
H          -7.47719761387888    9.68755141011729    0.20004649779165
H         -10.43455911301854   15.28090911837086   -2.50976065665788
H         -11.12205391171406   17.57015146306206   -2.18619362556817
H         -10.82308281547853   19.60438799530791   -0.63601279375688
H         -10.24370344300625   21.07434809356351    1.22484049611868
H          -9.04914761420232   22.16744182804380    3.23729761619208
H          -7.31413594968134   21.60995054199222    5.06450545619145
H          -6.59697988272750   18.61860931362985    5.16389056320402
H          -3.51784101115556   17.93561160328431    9.44415322132284
H          -3.41422436033043   22.87372205902248    8.59986671613458
H          -1.95750764543045   18.54399762641822   11.69149593573722
