96
 SCF done       -200.138490546311          0.000447721492
C          -9.71325250536339    2.06494667684758    5.64253803513748
C          -9.03483543419682    1.06862547622357    6.28283998154988
C          -9.56164005709284    0.31020418953505    7.35210266311215
N          -9.93814747529879   -0.33585575402072    8.22179901731125
C          -7.71497153278445    0.67294875230487    5.97112330895145
N          -6.64071427239564    0.31870753714728    5.78028616153758
C         -11.05457035905206    2.53804496620331    5.94322071909635
C         -11.38908886942704    3.59832675005087    5.05674253016670
C         -12.59318459522851    4.25977765493367    5.12138375305989
C         -13.51740570033829    3.85123564106619    6.08389597666941
C         -13.18131496580947    2.78705201702496    6.95896804020100
C         -11.96039129971520    2.12644990119507    6.90661602183428
S         -14.47210940495511    2.45356248520099    8.06882873403503
C         -15.43051498482454    3.72471113371229    7.34777797106648
C         -14.81627418212962    4.37134866448997    6.32806220213311
Br        -17.14414129257751    4.06814276787703    8.01635012053011
C         -10.28453987763890    3.82367215150184    4.12469051724272
O         -10.23895330609160    4.58490483786202    3.17881460602371
C          -9.21570804080731    2.86417884151466    4.52495877161117
C          -8.06162215907372    2.77157644682600    3.84777221747709
C          -7.77305686192696    3.65741419954876    2.72847854775301
C          -7.87929855247522    3.37831231710974    1.37828768938746
C          -8.43075345842517    2.08518737167078    0.92289892654600
O          -8.93297807289736    1.33009912039817    1.71837153425045
O          -8.36866141113548    1.79633861415915   -0.37292904595377
C          -7.47913743041492    4.61388507802936    0.76935859735002
N          -7.14717418770550    5.47835657248467    1.69779578431821
O          -7.32923582004853    4.89735404161252    2.89661269250605
C          -7.35606067009358    4.93542537981238   -0.64353161095074
C          -7.59939544169714    6.13373204141613   -1.22049945815137
O          -7.32985211257167    6.37858599486949   -2.55378875322764
C          -6.76541495918154    5.35213978746820   -3.25342330391354
C          -6.54176498276204    4.07899775968305   -2.66439370143437
C          -5.99162933976716    3.18244085681477   -3.51766093481393
S          -5.73430878351669    3.88755058921322   -5.06844855162351
C          -6.37732654278788    5.40056509650215   -4.55173847577654
O          -6.86612164555985    3.83070787918030   -1.35414629457426
C          -8.19294515726723    7.32766638264386   -0.64695892900856
C          -8.99671622779668    7.46097036239327    0.40749384344271
C          -9.58468013575741    8.78675457557144    0.76713542827161
C          -9.37784144683129    9.05447515825341    2.26808216473320
O          -8.35474431639722    9.33952782417266    2.80495695906778
O         -10.54620766383800    8.94048589425780    2.91851512147209
C         -11.60550479788573    8.55496071610118    2.05420786910660
C         -11.11532750793113    8.92044778222521    0.64302128879029
C         -11.81693311327982    8.17305049096465   -0.48572681053361
C         -11.93207702235591    6.67052843052955   -0.25724465075830
C         -12.52647983337027    6.30987289841373    1.09633181197427
C         -11.91995885117778    7.06456576392311    2.29001792513552
O         -12.91016193699498    6.96384352922910    3.31063264747394
C         -14.12074448616086    6.69457216830241    2.80667750784444
O         -15.08397738064324    6.51873808277786    3.49013940133085
C         -14.03106148596272    6.59924074463080    1.28097796326948
C         -14.89961995644520    5.52028493735445    0.75245086138926
C         -15.38943656896138    5.30288380041970   -0.47788422235137
C         -15.36000765658434    6.01741968458730   -1.75126812762756
C         -15.36366795206979    7.36773954096841   -1.96418439892357
C         -15.39052902031733    7.96468794862213   -3.24550150708320
N         -15.39106332922161    8.51213246079858   -4.25332873827268
C         -15.41261067651665    8.35623377322835   -0.96214496339162
N         -15.45744561092807    9.21314858470444   -0.19888563699279
C         -15.53735295861738    5.02111832511133   -2.80205373886477
C         -15.94138072635526    3.79397278069926   -2.21659989586376
C         -15.94832031048861    3.93223508670410   -0.75294843508417
O         -16.27033938677895    3.11801634945759    0.07470239479776
C         -16.23964636780606    2.67879798173610   -2.96321353682536
C         -16.12183892671604    2.77336339717496   -4.35295027299526
C         -15.69498033119968    3.99637505112123   -4.92908801448983
C         -15.40051318709133    5.12467924088850   -4.17524023384251
S         -15.60235057662243    3.88872236282171   -6.65933003176223
C         -16.13654878860448    2.22981730167129   -6.59028465186398
C         -16.36971182716654    1.77660154783405   -5.33452240002635
Br        -16.33164247222604    1.25531567210608   -8.17858899713679
H         -12.81469697048613    5.08503989308326    4.46824494077485
H         -11.74590862216657    1.32734201549473    7.59665016179330
H         -15.25172475372714    5.17500883053972    5.76021569278301
H          -7.31519338273255    2.02099141380329    4.06667526267779
H          -7.82883442421372    2.44134845883880   -0.87229288990946
H          -5.72785993253024    2.16306217705193   -3.32736756395773
H          -6.43241655621250    6.23011647191207   -5.22485334650698
H          -7.99851744067164    8.19299719313875   -1.26887689370337
H          -9.23117884817316    6.63136466222909    1.05478457606147
H          -9.07547981011693    9.56416953409287    0.19391767945173
H         -12.48504911864222    9.14014069878268    2.34473063993907
H         -11.31984117882570    9.98803769670052    0.50361379687229
H         -11.27487004099320    8.35236096422047   -1.41565055892299
H         -12.81249958651615    8.60614442616939   -0.60113215640982
H         -10.94395589928185    6.21592662162545   -0.33130177630652
H         -12.55101303240415    6.23003517266858   -1.04291270125566
H         -12.36612473957180    5.23878723858183    1.27202603435390
H         -11.02481901286097    6.56597707969192    2.67451223547058
H         -14.28061565502678    7.57990243727755    0.87198777615975
H         -15.10468640748204    4.71948716499187    1.45843761082176
H         -16.55393174863522    1.76314374876056   -2.48777688428670
H         -15.07129051134397    6.02827865449290   -4.66057006386412
H         -16.70286374527514    0.78017697606709   -5.10880155687643
