95
 SCF done       -180.544100709280          0.000483211424
C          -8.91525943194821   -5.17766606197862   -2.06291619926531
C          -8.90187792253396   -5.81991335188331   -0.84825612320478
C          -9.81080404422952   -6.83319797087110   -0.48033313688875
N         -10.51800072287976   -7.66021773277014   -0.11252221782543
C          -8.01654763238220   -5.57314683062382    0.21998699546777
N          -7.36454524944936   -5.42939701797647    1.15587655307626
C          -9.89084956232627   -5.42566962857439   -3.12232720118058
C          -9.60495775555365   -4.56695830612417   -4.21051733709670
C         -10.35626385324661   -4.54257630555418   -5.35903712981452
C         -11.45061837937221   -5.41047956577541   -5.43919329299668
C         -11.72884661414808   -6.26821099043181   -4.34969722591528
C         -10.96545607525302   -6.29264858087114   -3.18841951481564
S         -13.12601075095172   -7.25611439149294   -4.65553524927115
C         -13.31482969949036   -6.51060881583573   -6.22033769925487
C         -12.38077877501191   -5.57198488028264   -6.50240490237023
Br        -14.72889178586182   -7.04037570283989   -7.33333057406456
C          -8.41603593009563   -3.75589150360774   -3.88586697206719
O          -7.88656329151234   -2.94348911207401   -4.62221470736187
C          -8.01814385033666   -4.13969211008970   -2.52714782784502
C          -7.00769539895155   -3.57096068358747   -1.78586736494845
C          -6.09691311287561   -2.55995277510084   -2.11454419880143
S          -5.74934066983737   -2.02261441512716   -3.74093108183602
C          -4.40603714933317   -1.12484377386718   -3.18159681186795
C          -4.22693204584815   -1.16024574211403   -1.82973798292026
C          -3.14851512356131   -0.41701361134818   -1.11389286580086
C          -5.21068729900351   -1.96060067721560   -1.18801434582409
C          -5.27599834439484   -2.05201164735765    0.23487894232349
C          -6.36348967121107   -2.31940827210346    1.00102908762796
C          -6.29947435859641   -2.35669109301748    2.41598622095067
C          -7.34191443105810   -2.74219664603448    3.19591388822158
C          -7.29099308362329   -2.71112782497433    4.60920061307704
O          -8.33458545268250   -3.19959794032960    5.33557553321411
C          -6.36147430069697   -2.18636419067010    5.49198441354317
C          -5.06327781613209   -1.52015339345919    5.58613095731830
O          -4.26906399613630   -1.19470391806613    4.73591735589479
N          -4.89727472199274   -1.31479020170747    6.94994344857682
C          -5.94893810601609   -1.77024529584050    7.75143248117355
O          -5.99032494436228   -1.64891533990060    8.95272293984268
C          -6.88468531491434   -2.34820888661150    6.79789020231920
C          -8.11093930433765   -2.99506455903887    6.66543659011619
C          -9.05232199254979   -3.44134440132740    7.60801912374158
C          -8.94716073043124   -3.15605329122979    8.94413372344219
C          -9.84806221263381   -3.59746407698293    9.91511346134690
C          -9.80593895202103   -3.19095810111053   11.23249469617832
C         -10.65366380001247   -3.60768107544306   12.28552840499392
C         -10.41210330943513   -2.98808952402614   13.47649172241771
C          -9.37132524566081   -2.03737840212980   13.42102785373727
S          -8.67532933097651   -1.98853898626767   11.81427033869193
C          -8.92880391782952   -1.18199091828701   14.41302837634984
C          -9.41603442246216   -1.04294064074391   15.73412536715525
C          -8.79510693242592   -0.06031965500440   16.43712464192494
C          -7.79370716362356    0.65080628244527   15.71272467098252
S          -7.66053511395312   -0.02351146090001   14.10222513266300
C          -7.04312391503601    1.65213764873408   16.26116360545435
C          -5.99348354382804    2.47396791301460   15.75311550428596
C          -5.67982201763826    2.71704580466162   14.40651348466968
O          -6.55037971833806    2.18595263082187   13.52093796335031
C          -6.30967054559698    2.09179385143449   12.13155350506374
C          -4.56292151076988    3.54655446681239   14.05001518432117
O          -4.34270114156878    3.71742649084899   12.71466213004557
C          -3.26613540196304    4.52272875281132   12.29866444498861
C          -3.77767089862413    4.14531435581115   15.00609871543406
C          -4.09043485710094    3.95949239925210   16.35905618033728
C          -5.20153013956199    3.13661250091447   16.73478251712084
N          -5.35497696351865    3.07553535192430   18.05301157562468
S          -4.20976941578480    3.97650994066897   18.74936689031818
N          -3.46392316111103    4.48026141026379   17.41160035085198
H         -10.10996022641382   -3.87328142264963   -6.16831390948936
H         -11.22277070511593   -6.96574566838567   -2.38822657953472
H         -12.34766572305498   -5.01453242511527   -7.42061629499060
H          -6.87521269306090   -3.96130318273734   -0.78514571789434
H          -3.80973274251773   -0.57920867051560   -3.88824688614946
H          -2.53586955735791    0.13126834117737   -1.82451344289160
H          -2.50926400585396   -1.10645937788604   -0.56362093623712
H          -3.57643180031207    0.28835808667825   -0.40320897849012
H          -4.35530122328002   -1.81923006455422    0.75433839290003
H          -7.33559694555141   -2.47215356672407    0.55404110549961
H          -5.36951474999955   -2.06644087942183    2.88599313315361
H          -8.26148611063761   -3.10140774012325    2.75653411352369
H          -4.07939844753348   -0.86641191347567    7.33632669590100
H          -9.88736085081846   -4.01261774284665    7.22852899320158
H          -8.11898659628783   -2.54197682172295    9.27512952279273
H         -10.63330333710800   -4.28502057355290    9.62903690464981
H         -11.41606577836865   -4.35069178865406   12.13011147337671
H         -10.96005888613892   -3.18091154856061   14.38152635617604
H         -10.20951689465538   -1.65784243973133   16.11972543219305
H          -9.02628860679564    0.19745382017372   17.45580149939340
H          -7.22557776269875    1.82969451026111   17.31533734443095
H          -5.35208928858793    1.61677762874691   11.91711592533516
H          -6.35288172804090    3.06972213260929   11.65058408060799
H          -7.11264704747310    1.45965668886749   11.75242494464517
H          -3.29521668337631    4.50039342404960   11.21037003072241
H          -2.30807929095061    4.12360363898509   12.64439993196953
H          -3.37921297070051    5.55470119863429   12.64418500880644
H          -2.93956702020646    4.77080683678686   14.75448802836756
