93
 SCF done       -179.843099670074          0.000595101562
C          -1.06847238450294    0.92057798606517    1.42974646849350
C          -0.54095588023269    0.10298237438201    0.46112383741689
C           0.48560125811426   -0.83440621367081    0.69167219419203
N           1.32312051786291   -1.60924430610454    0.82169255318265
C          -0.97941659214187    0.06979970756368   -0.87834635008224
N          -1.30456888862533   -0.02266146278830   -1.97622937088232
C          -0.71667864961496    0.90810894617198    2.84487436394659
C          -1.57202830757387    1.80526688568159    3.53042639969842
C          -1.48969292350478    2.01726361154868    4.88449426204615
C          -0.51749948992316    1.30708812478072    5.59779814242633
C           0.33406947275097    0.41532211010966    4.90392111012619
C           0.25123870492872    0.20192961191341    3.53295276637947
S           1.46790660560910   -0.34975889561840    5.97531152303133
C           0.78958271764936    0.52408531958556    7.32295762156973
C          -0.23248704068748    1.34770906774086    6.99005746759463
Br          1.49865242756374    0.27087267796948    9.04065909270698
C          -2.49745575945782    2.43807020595102    2.56829061121312
O          -3.31257145750315    3.30462020848257    2.81357263482347
C          -2.13540177218251    1.87779345926031    1.24787165345888
C          -2.56462931579421    2.38286108091766    0.04392131677019
C          -3.69768976446093    3.18094064785137   -0.17124083928446
S          -3.67623025898367    4.33900418286058   -1.46529401520455
C          -5.23035553236328    4.98111265712447   -1.06499416571010
C          -5.81523389900599    4.23096085905331   -0.02174112965698
C          -4.94653483533645    3.21325989282815    0.47864137701429
C          -5.40625556594896    2.30051309984229    1.44244071654564
C          -6.66802773006239    2.44830336891875    1.94490549781293
F          -7.12920591775006    1.58750819893165    2.86227272947973
C          -7.51857654323158    3.47132135636347    1.47781116116897
F          -8.76238508213537    3.56573937378104    1.97332722256184
C          -7.11847420463138    4.33513299234787    0.49690547384004
C          -5.65657605174032    6.12392517375033   -1.78492552750085
C          -6.66842580976227    6.97655332705074   -1.48461732008573
C          -6.95159543140791    8.11804586635449   -2.28998184826753
C          -7.91411052810994    9.04010834799366   -2.08478844090759
C          -8.93793548453765    9.00577792637332   -1.00057632730497
C          -8.06949540941972   10.18123860272491   -3.06054449108387
N          -9.15189770284421    9.92535825518770   -3.99037153312864
C         -10.44713922681444   10.22456258107808   -3.68348538354815
C         -11.51802467321326    9.64268405380487   -4.26229276200826
C         -12.88217953359289    9.99542615599986   -4.04225004901498
N         -13.32433763510000   10.95968182078940   -3.16936235357510
C         -14.68552940757769   11.06119165682823   -3.15529165651378
C         -15.17208421940208   10.13451206895146   -4.05228583495839
C         -14.03858279978346    9.47902497684033   -4.61245772828985
N         -14.47816443563213    8.57976636270301   -5.54579429324934
C         -15.82573162879476    8.63892111770743   -5.59925792434681
C         -16.33166141551873    9.55922668346676   -4.68422280994213
C         -17.70081546594448    9.82237698771349   -4.47175504209208
C         -18.27403219919027   10.41307450055928   -3.37853758173291
C         -17.74553209759423   10.66273842273265   -2.06510850030615
C         -16.75409505678942    9.94287278203081   -1.43619536127233
C         -16.22686046904526   10.26800368628098   -0.17455265379043
N         -15.71762064840368   10.52751630703878    0.82305244374150
C         -16.21342501670848    8.74556586541329   -1.94327923815043
N         -15.79519712283221    7.72360875681653   -2.26115076125178
C         -18.60408718566772   11.65581178350799   -1.42653292244983
C         -19.74552947835238   11.85478161240973   -2.24327617735620
C         -19.61455883040074   11.03195874714540   -3.46870844906910
O         -20.41535935993371   10.92709646588400   -4.37227733531631
C         -20.76606301021314   12.70077974103526   -1.88812860873722
C         -20.64985379364106   13.39377079578168   -0.67706200022782
C         -19.50316907609436   13.19463527941946    0.12509939032295
C         -18.47467352421850   12.32821662425241   -0.22732896225144
S         -19.56102554546309   14.15532254433831    1.57296274649645
C         -21.10727021985768   14.79971432258085    1.08760312490876
C         -21.55737412258320   14.32264036873120   -0.09618152470299
Br        -21.97801878943439   16.04381738236077    2.19047878466666
H          -2.15568685659157    2.70672952790637    5.37910663639458
H           0.92609101699952   -0.48330104615690    3.04771028456669
H          -0.76382755665923    1.96021612049590    7.69533620929825
H          -1.94008324519646    2.21817891192007   -0.82647771208740
H          -4.79451332965468    1.47700183845534    1.76855496962242
H          -7.82712799758968    5.04926211212689    0.11585522836553
H          -5.04958676395092    6.35204535577998   -2.65381130542534
H          -7.25151244935826    6.83148989561951   -0.59122572463986
H          -6.29534549426720    8.25506326023223   -3.14194390812019
H          -8.85565966169520    8.12507435465990   -0.37384041916743
H          -9.93842250369216    9.02338649958373   -1.43753878243295
H          -8.84134385459806    9.88983474701225   -0.36947985072716
H          -7.15228791238240   10.32012263818166   -3.63948090641970
H          -8.29260197956123   11.11123178453018   -2.53155617886878
H          -9.02445848372520    9.09995565032103   -4.56070215434224
H         -10.55725258344329   11.03887178977027   -2.98052757682163
H         -11.35758251499177    8.83878495271875   -4.96741277394219
H         -12.71827604163797   11.50862364968413   -2.58418645442132
H         -15.16976770137714   11.80119605540567   -2.55165243997875
H         -13.90627112567252    7.92976835549411   -6.05915281702589
H         -16.38433382737762    7.99291933010532   -6.24982129669289
H         -18.37607468685522    9.58856095733030   -5.28754857054200
H         -21.62968072599976   12.82618665843284   -2.52225258247976
H         -17.61976527623916   12.20537890403204    0.41723826776102
H         -22.49029995364612   14.61228261707268   -0.54431755485514
