115
 SCF done       -212.884278639626          0.000347895283
C          -9.51855042923857    1.85196306405794   -6.29614429140385
C          -9.52118153266981    3.18795507370654   -6.60028449259912
C          -9.68866403538219    3.70000256367094   -7.90363424721577
N          -9.82759138661226    4.16916375440718   -8.94143680541487
C          -9.30747785104986    4.20855738515226   -5.65251855080413
N          -9.12105359545572    5.06664810710152   -4.91207084968488
C          -9.62538544228316    0.75185756545450   -7.24673780034931
C          -9.34291018531009   -0.46799857922739   -6.57500591604219
C          -9.33811755336471   -1.68002748555684   -7.22309994680955
C          -9.64512014214988   -1.69237028624992   -8.58767368315717
C          -9.95870872769343   -0.47571045074515   -9.24178609822882
C          -9.94353335211202    0.75192038236237   -8.59048847342975
S         -10.33137210423442   -0.71360191147129  -10.92052195490473
C         -10.03175666296024   -2.41705065273416  -10.73913508438376
C          -9.69258509047024   -2.79431992155830   -9.48024841893453
Br        -10.14664572797235   -3.56299425661172  -12.21219578295847
C          -9.09985811492340   -0.18333677104667   -5.15639416630210
O          -8.82567519003048   -0.97388703762853   -4.26106923067088
C          -9.29148437119750    1.26281619184854   -4.99558071657219
C          -9.31375219379683    1.86276727597242   -3.76620859818899
N          -9.06019140656183    1.16477731424811   -2.64612504147876
C          -8.90636127391697    1.68093362708524   -1.38815977233263
S          -9.40087565874745    0.73629071220623   -0.02007640994094
C          -8.88639829418910    2.01833948977921    1.02737790646030
N          -9.02782353987128    1.83227611599877    2.41086951118867
O          -8.66498746579200    2.73413714862299    3.14079294845170
O          -9.50426559257055    0.77223736017031    2.77503293685264
C          -8.36429570348850    3.09444504431359    0.36257485044106
C          -8.35725261004141    2.91988939438955   -1.03629230091411
C          -7.75843266543168    3.80200149441267   -2.00042786307175
C          -7.26453383124881    5.03443316258933   -1.79497110950672
C          -6.66729821052552    5.82752975360184   -2.84660594453477
C          -6.79274358693386    7.23176081820653   -2.76962120789025
O          -7.34602940578401    7.71969992543463   -1.63361790282886
C          -7.56704965884200    9.11273752499035   -1.50960547753666
C          -8.21979766660622    9.35357451471138   -0.15756368015065
C          -6.39224474628740    8.01411177705180   -3.84084398751191
C          -5.84665587310560    7.45171850819734   -4.98902177094443
C          -5.43667126732959    8.34047669056255   -6.12870682188975
C          -4.19229252867450    9.16155748862759   -5.78611882363365
C          -5.68306495242797    6.07154591765714   -5.06218104138940
O          -5.13828632479665    5.50946070795321   -6.19782462026718
C          -3.75151898502936    5.21663507390625   -6.12382211657739
C          -3.37237883966778    4.41445014205007   -7.35693186110687
C          -6.07622560010110    5.25046616675193   -3.98978764075056
C          -5.82544710947951    3.82540095904998   -4.03483736569566
C          -5.99461670918447    3.03416172521936   -5.12411542994463
C          -5.78939239982331    1.64008975042368   -5.10191328219378
C          -5.97010871706889    0.82258914987701   -6.18574604021637
C          -5.83353153975052   -0.58616020835052   -6.24000041604023
C          -6.06355091254650   -1.12098907262040   -7.47042774264520
C          -6.39158193246447   -0.16408504167558   -8.45746137880728
S          -6.40921697448410    1.44034511676309   -7.77579949160648
C          -6.67872113152627   -0.38185694415569   -9.79315627458542
C          -6.69302981066911   -1.60477013372467  -10.49346386277235
C          -7.05059936596494   -1.48057747910380  -11.80496411583886
C          -7.33551161431415   -0.15509061560545  -12.20097232724617
S          -7.11557492062294    0.93881086550246  -10.85668034547790
C          -7.78463208516264    0.25772259188323  -13.44133699801863
C          -7.99200944014377    1.58981192744250  -13.77718777675106
C          -8.52272436004462    2.08645551405246  -14.94978730466749
C          -9.28262467534971    1.45067190364372  -15.98579902300500
C         -10.08410016189752    0.33646991526801  -15.85211857967806
C         -10.82768472248825   -0.22836860156422  -16.90496726055552
N         -11.43266730883011   -0.73961694558363  -17.73707716835767
C         -10.35279859727756   -0.28556904504351  -14.62182293869663
N         -10.66000785208437   -0.79117833116803  -13.63629962328886
C          -9.25070668942261    2.32689666180916  -17.15630685060446
C          -8.65305591669602    3.55599216831819  -16.78078989196115
C          -8.22386998473898    3.47327409844048  -15.36631576248709
O          -7.69601808201817    4.34052910618229  -14.70468945202110
C          -8.51485862038902    4.60570301230683  -17.65351777156545
C          -8.97819247748033    4.43134867350398  -18.96312240616196
C          -9.56032426869848    3.19659788133857  -19.33093023728368
C          -9.70905683543607    2.13558088227361  -18.44420392108822
S         -10.05340852646680    3.19366300290054  -20.99753914926903
C          -9.48227427063364    4.83172084750349  -21.17276265279035
C          -8.94816460090460    5.35481546889412  -20.04424237715062
Br         -9.64298074423854    5.69572690454175  -22.83041426893433
H          -9.11016544087606   -2.59126889138787   -6.69249268230462
H         -10.17588046749560    1.65467072391982   -9.13026291003385
H          -9.48318567150490   -3.81007936917279   -9.19824966880331
H          -9.58525737269843    2.90281889571953   -3.65201226542103
H          -8.97022007136261    0.14913600006175   -2.79652032958253
H          -7.98799489757802    3.96229098898816    0.87182823131699
H          -7.69822404538359    3.40611004762823   -3.00202566346521
H          -7.38718396454431    5.53269801031110   -0.84477235731474
H          -8.22585088217606    9.46045574274355   -2.31614938214668
H          -6.61269236225950    9.65352903050046   -1.57169803635266
H          -9.16061702693159    8.81344895640578   -0.09859902792602
H          -8.40910403200498   10.41448516162069   -0.02335212611147
H          -7.56827203702158    9.00494341601278    0.63907604321892
H          -6.51726496556453    9.08494917262869   -3.81331516885252
H          -6.25895974815942    9.02017086438919   -6.36277591040785
H          -5.24365892860853    7.72597448541963   -7.00807222247218
H          -4.37772010766537    9.80688922047597   -4.93056441908783
H          -3.90977401313844    9.78315659659101   -6.63216893010378
H          -3.35576802267746    8.50959632007463   -5.54301408901926
H          -3.53833604405015    4.64238148212823   -5.21012108635248
H          -3.17408496494650    6.15168142419282   -6.08235764128973
H          -3.91428885582168    3.47255675596799   -7.37024155580025
H          -2.30470437738176    4.21413021257354   -7.35457120431491
H          -3.63067469905621    4.97196594480773   -8.25274246457964
H          -5.48370480135175    3.37292719205518   -3.10984456443191
H          -6.33976870003695    3.47347108458859   -6.04982430405705
H          -5.48604236146851    1.17746734269895   -4.17092992540296
H          -5.57724417452969   -1.15684532019967   -5.36518680966537
H          -6.00647999021121   -2.17032170215395   -7.69576971521725
H          -6.44195690008533   -2.53731170412265  -10.02101871947938
H          -7.12611166868562   -2.30116933548309  -12.49630941910599
H          -7.94785175638632   -0.51570285832639  -14.17890983726404
H          -7.61713088567318    2.34220042440972  -13.08934667708812
H          -8.06489519481227    5.53407679390050  -17.33844791101631
H         -10.15681504797817    1.21161936290216  -18.77094634804695
H          -8.54858278378900    6.35006193311983  -19.97422906499032
