127
 SCF done       -234.216017415715          0.000777136984
C          -3.31921913784175   -0.99447804444763   -2.89674005721996
C          -2.20960503698253   -1.28015507601619   -2.13948232936979
C          -1.35333529298773   -2.37341882493287   -2.37594022036163
N          -0.61687831063619   -3.24214660230010   -2.52563700075795
C          -1.77976645504568   -0.53282253562104   -1.02414667256048
N          -1.36286841486854    0.02205044083860   -0.10892417939785
C          -3.81262398873248   -1.78611753471551   -4.01961236613824
C          -5.02391160908846   -1.21450769917969   -4.47857424231176
C          -5.73732891868939   -1.73599149302220   -5.52858674283710
C          -5.23184359050661   -2.88022089034254   -6.15616849336408
C          -4.01983625691063   -3.44196048810551   -5.69296053663481
C          -3.29691388588408   -2.91278370176110   -4.63015680082665
S          -3.57263126655925   -4.84669779206741   -6.61389679352406
C          -5.00327881866776   -4.66354010767862   -7.59303827929439
C          -5.77661887471943   -3.60645249452356   -7.25105586807336
Br         -5.34070315561146   -5.88422587354312   -8.97693008417203
C          -5.34719125999174   -0.02852284383451   -3.65965124032738
O          -6.28233113236826    0.73178412239082   -3.82412818574956
C          -4.24740723586587    0.08727090835141   -2.68224976788603
C          -4.06126371102557    1.16940706151109   -1.85394016996953
C          -5.01550007211544    2.14431781406582   -1.53725547919121
S          -4.42415627885501    3.77194633322359   -1.33120419153531
C          -6.01399207733844    4.45357534398165   -1.36404281941415
C          -6.99152377338591    3.42724237669100   -1.45324331086279
C          -6.42591093968531    2.11844958714760   -1.45685850141009
C          -7.28947488413977    1.00904878072380   -1.29431531109061
C          -6.84730451269813   -0.36258870170871   -0.87645026792727
F          -5.66122442187777   -0.39838096494997   -0.25543552461472
F          -7.72388734613818   -0.88101374542504    0.01467205589714
F          -6.78922162013896   -1.28077658491710   -1.86128991444264
C          -8.64978589584066    1.21011857333647   -1.37296064993817
C          -9.20007782758572    2.47517724046001   -1.55474412317635
C          -8.39780718260885    3.60014170768370   -1.54943659671656
O          -8.86875640524643    4.86201796092947   -1.62883737071445
C         -10.25526209117103    5.08360260908541   -1.76624477900585
C          -6.24020320872996    5.82384041693479   -1.23965876231425
C          -5.27369850262304    6.80189782295497   -1.17242711964656
C          -5.51829463866686    8.15292345280037   -0.91906391177701
C          -6.68421969376931    8.73446181499329   -0.44988208022419
C          -6.87997142400613   10.11714016891850   -0.22620071125171
C          -8.08980274239156   10.44381213040895    0.31718346083018
C          -8.91473607921064    9.32958594502931    0.56697127108323
S          -8.11177497154789    7.86067370602180    0.05864057767921
C         -10.17559207131308    9.27653081361799    1.13228151928715
C         -11.00676588195809   10.33628225143157    1.55482397302361
C         -12.18853090886823    9.92739950573334    2.08977017323268
C         -12.36766965220235    8.51576087963613    2.14031072971149
S         -10.95109730611143    7.74015260726735    1.44179916133781
C         -13.47655603302713    7.89818935566014    2.64691684305800
C         -13.77991264461470    6.51163367006742    2.80914384779064
C         -12.85722361462052    5.47402138818288    2.57554572500831
C         -13.23379807965729    4.17141311783220    2.77717617342690
C         -14.53671499697116    3.85271960266322    3.20534461174233
C         -15.45944979137631    4.86456625666740    3.44490613554766
C         -15.07419657173561    6.17163548473087    3.25293923676387
C         -14.64627273705460    2.41865168394360    3.32195044490582
C         -13.41133151878959    1.84430787412592    2.96777826170643
C         -12.40766777512975    2.91618400949755    2.61354635799859
C         -11.89151237934115    2.75520061448770    1.17295527896723
C         -13.01287476925519    2.79789459188484    0.14119138036136
C         -11.21395926367394    2.90550941025628    3.58870844425015
C         -11.63545082548056    3.03275950287418    5.04740610392277
C         -13.24728225270132    0.48294454082007    2.98395296362343
C         -14.31778912355703   -0.34638666758192    3.36372791934122
C         -15.54009621574784    0.24418484691103    3.72059984786668
C         -15.71149867213152    1.61122814474485    3.70217918205122
C         -14.09631591018877   -1.76616675296287    3.39950780734181
C         -14.99979397861559   -2.72453529214060    3.71132795089473
C         -14.73811885477960   -4.12034095308506    3.70736821824803
C         -13.56952145699215   -4.80903357254695    3.83263103818246
C         -12.22952948433720   -4.45280998063194    4.25137381310939
C         -11.87235510511663   -3.46688144508986    5.13495029367197
C         -10.55272110186912   -3.25042655965930    5.58218863594741
N          -9.49715697519007   -3.01847769222877    5.96958738134199
C         -12.78296878327429   -2.59497095099957    5.76329791833346
N         -13.47637656396119   -1.87148229879749    6.32344166292312
C         -11.33270179459391   -5.50004906578821    3.76926407775618
C         -12.11158117437918   -6.58308146884248    3.28992715071427
C         -13.54079315703275   -6.23158070529444    3.38974341660510
O         -14.49663189705707   -6.92525948386896    3.12720722627560
C         -11.54942811272113   -7.73869389192516    2.80464572951207
C         -10.15343675631177   -7.82387265955558    2.77840723879870
C          -9.38410846951186   -6.72868126322208    3.24034942342731
C          -9.95266025168274   -5.56330128682080    3.74025989152586
S          -7.68083847698850   -7.04025015024768    3.10227641237619
C          -8.01942180974154   -8.61851599771154    2.44290324364849
C          -9.33950560616146   -8.89845864813543    2.32715529700334
Br         -6.59983066640864   -9.74782753099501    1.96777051530112
H          -6.65901681159225   -1.27948189718811   -5.85336442752699
H          -2.37590915878482   -3.37491213058048   -4.31622804168274
H          -6.69303384566150   -3.34690252018784   -7.74895405392688
H          -3.06050788227355    1.36388199471175   -1.48721966114819
H          -9.31490979911471    0.36542145193461   -1.27716522622749
H         -10.26904827722603    2.56095086458815   -1.64770121111594
H         -10.36784832099314    6.16480930937796   -1.82658284094552
H         -10.81040016057218    4.71399256805043   -0.90063708855391
H         -10.64493302488368    4.62476958945357   -2.67894528098958
H          -7.27630725822228    6.11294917617582   -1.21805631790353
H          -4.24363851972755    6.51489705751717   -1.34453660538587
H          -4.69130529980736    8.83697248061384   -1.06162699361770
H          -6.11680439736578   10.83480167168087   -0.47157623764384
H          -8.39423298322108   11.44667555126675    0.55753784822648
H         -10.71192784673399   11.36476327121818    1.44814539050630
H         -12.94576510044518   10.59374712230808    2.46391785817408
H         -14.25312594586540    8.57618330420094    2.98284097572338
H         -11.85215779477129    5.70313350064597    2.26052043874018
H         -16.45847855643082    4.63080456011606    3.78050836813691
H         -15.78146097510144    6.96692905650437    3.44010376783646
H         -11.35948342351083    1.80475806431562    1.09578617754865
H         -11.17161921648426    3.55302386073916    0.97557572546376
H         -13.74697992137206    2.02143119690724    0.34457695597905
H         -12.61909361694567    2.63693128408964   -0.86003529566752
H         -13.51927215862476    3.76068729282383    0.16088792792789
H         -10.54720517586316    3.73098937584536    3.32989621489480
H         -10.66082246598521    1.97412532687835    3.45235519632255
H         -12.17700510040352    3.96168635381726    5.21321212775816
H         -10.75734762767269    3.02758536158179    5.68836565398257
H         -12.27614009434159    2.20363104837389    5.33918862176455
H         -12.29960378830530    0.03699115950282    2.71656871648843
H         -16.36366758742306   -0.38222637743087    4.02343436990966
H         -16.65865201364454    2.04718097714633    3.98191550952601
H         -13.10028273108975   -2.07887912962395    3.10806125843026
H         -16.02676205501381   -2.45005156691693    3.90589096923163
H         -15.59737867467722   -4.75742940064137    3.51384097814590
H         -12.16637580193067   -8.55157859533671    2.45524135527771
H          -9.32656580981826   -4.75224260201905    4.07372056213722
H          -9.72497836183659   -9.82370976678577    1.93962174551006
