72
 SCF done       -150.029063259744          0.000841364362
C          -7.43432242078948   -0.34367266936649    2.76011851686546
C          -6.50656971272553   -1.26742934467267    3.15651540251615
C          -6.70505052722288   -2.16639872295572    4.22631260009558
N          -6.82405216630528   -2.91781092807224    5.08508498684871
C          -5.20659823179456   -1.37840765744454    2.61395657555878
N          -4.12001102383447   -1.48565775676987    2.26146831437661
C          -8.70874460762399   -0.07091852267306    3.40767842472206
C          -9.23676154560076    1.13070155298422    2.87426796347690
C         -10.43201369264850    1.66292745661431    3.29452312662381
C         -11.14349460878310    0.97195173532585    4.28029633466977
C         -10.61061808387188   -0.23232678723933    4.80230939031751
C          -9.39886227033825   -0.76673234104787    4.38316064425505
S         -11.65697586787618   -0.92637891223699    6.00219190794374
C         -12.77981860423157    0.39126334579974    5.79173886446606
C         -12.39290567285965    1.30555926613617    4.87022566768534
Br        -14.35656850921330    0.43425773160479    6.80504353862712
C          -8.32490884532393    1.66527269330129    1.84190545029943
O          -8.45345887277488    2.71341113020719    1.25183795116600
C          -7.26590144099220    0.62672878383272    1.68796700395616
C          -6.41955775872762    0.46058124368025    0.63424046269165
C          -6.18730548938548    1.34726392461115   -0.44374986955130
O          -6.55123432591876    2.63716571335606   -0.42196973620645
C          -6.17066705236659    3.20732549273401   -1.57774826466591
C          -5.52994508095786    2.28047396085787   -2.37808421072458
C          -5.53168751135828    1.07189362826705   -1.65710510496249
C          -4.99893772010498   -0.21045915650779   -2.09221564475057
O          -5.14993454509075   -1.25880096669748   -1.51738535273798
C          -6.47746726033738    4.58623094829361   -1.78156554437652
C          -7.15704933142464    5.39591132024952   -0.91717699540903
C          -7.30923643339837    6.71751460999604   -1.40138203563146
C          -6.72260290002553    6.88503628699164   -2.68686223311627
S          -5.99058629912818    5.40556600798079   -3.24854868593059
C          -6.75683442011775    8.08244109549967   -3.36459397868522
C          -7.38885591213655    9.16340691416090   -2.74773659286473
C          -7.96070073403312    8.99984134710432   -1.45734825904576
C          -7.93313884189814    7.80071391467793   -0.78211497103504
S          -8.67016412873731   10.48628886527251   -0.88565155036568
C          -8.21816925122715   11.30561457113741   -2.36568243208128
C          -7.55881320839231   10.47953583807262   -3.23660938540029
C          -8.53553465415804   12.67513407357387   -2.61211649594307
O          -8.30641509051611   13.13932695485518   -3.85677945732614
C          -8.66612979636372   14.44872986342275   -3.89742135176423
C          -9.12826648279333   14.83649525087185   -2.66110362777627
C          -9.05498727277402   13.70093847156189   -1.82053992478043
C          -9.43616153865976   13.67585165470019   -0.41667025619588
O          -9.89357342268014   14.61517709073437    0.18108954565011
C          -8.54103455510381   15.21297410643101   -5.09747518561787
S          -8.80874419961711   16.92172839036717   -4.99743175670424
C          -8.48380300325046   17.06723426242969   -6.68881227616889
N          -8.55846889725926   18.34099196120467   -7.27919637715865
O          -8.32744636973752   18.42273298752672   -8.46955244524388
O          -8.85033013264361   19.26837398596846   -6.54807425359300
C          -8.18496857447845   15.87345874015960   -7.28919739912302
C          -8.21325329531879   14.79161430242610   -6.38911361681196
C          -7.97397521245352   13.41091203615653   -6.76535772598607
C          -7.39869543447596   13.02730488938671   -7.89985864305131
H         -10.80857614895941    2.58192226689866    2.87336791219222
H          -9.03503504689274   -1.68907417942766    4.80443859929716
H         -12.96484887368222    2.17889943051305    4.61510722880420
H          -5.87570793592963   -0.47198212873735    0.54075340430527
H          -5.12548385844707    2.45586316191442   -3.35417902057139
H          -4.42921288713955   -0.14772682614697   -3.03806658811143
H          -7.54089403826285    5.04186192417991    0.02287221518377
H          -6.31109027929039    8.19009876650159   -4.34028809270325
H          -8.37679759408758    7.69257297665149    0.19427028449160
H          -7.19771765513758   10.81055527152724   -4.19369614022086
H          -9.48405994632627   15.80455554191510   -2.37371181665757
H          -9.26725087142358   12.70310321989054    0.08233874208622
H          -7.97604318261221   15.79521105944666   -8.34008676623678
H          -8.29948958016516   12.67005205584186   -6.05061243900975
H          -7.03558154962140   13.72702516844610   -8.63248101257040
H          -7.26117771018143   11.98517765572864   -8.12963754234035
