84
 SCF done       -181.103151825389          0.000397487126
C         -10.83786102488721   -0.35764572904812   -1.63131816852401
C         -11.69738716418574    0.63525035296888   -2.03414136532841
C         -13.05699661486456    0.42041590619154   -2.34368457478251
N         -14.16832658353661    0.31348679455095   -2.61208602486717
C         -11.39221289984315    2.00378910550279   -2.15747800290654
N         -11.25214869605191    3.13989908676589   -2.27283948727962
C         -11.20233208820396   -1.75653434404409   -1.43101404557704
C         -10.11305139998369   -2.42883427634561   -0.82444993161025
C         -10.15386689023332   -3.76099939557479   -0.49669019361772
C         -11.32135048597473   -4.47182615048258   -0.79674350834041
C         -12.40110560407904   -3.79501684081582   -1.41132095064780
C         -12.36376291112805   -2.44360771358166   -1.73232065579923
S         -13.74291985047212   -4.86164327657490   -1.69882361379500
C         -12.84743879779570   -6.18283842771932   -0.99741725171261
C         -11.60725771071404   -5.84574464619919   -0.57029222855472
Br        -13.63236746294533   -7.88310463853320   -0.89736788650065
C          -9.00412963286113   -1.47326326048139   -0.61272327001343
O          -7.99970858454711   -1.66764634860231    0.03343333448828
C          -9.44282011380327   -0.21581027403019   -1.26914503244328
C          -8.68052674546377    0.90079100787848   -1.46230654070331
C          -7.27513174893882    1.01565003969783   -1.27435287919882
C          -6.67864009128861    2.24449116939986   -1.04800284344289
O          -5.31954775227483    2.41566660356791   -1.03475020920112
C          -4.58596559412624    1.26441657113960   -1.11611351886263
C          -5.20526033592492   -0.00707423314812   -1.29257760958856
C          -4.31219562414413   -1.02655107329642   -1.31992033029041
S          -2.69938976976980   -0.44713053244234   -1.13589577570875
C          -3.23585247524335    1.18563885411818   -1.01652097152028
O          -6.55066011941747   -0.13416158382020   -1.45012726589067
C          -7.41434669978240    3.44580148475210   -0.84059820944730
C          -8.66416800240554    3.47570240047164   -0.30840281905944
C          -9.58738779619376    4.55956125164903   -0.28091958732424
C          -9.46290430294005    5.78758984686698   -0.95021992790846
O          -8.31738245555937    5.98246017740285   -1.62873137428226
C          -8.26601193318748    6.83143663196346   -2.76473365088142
C         -10.47959581105339    6.78725006267628   -0.86763613309462
O         -10.19501363872116    8.04051911598130   -1.37605287949496
C          -9.79486922858861    8.97634721028974   -0.38999639220989
C         -11.71683428548982    6.57492206726511   -0.26580281961813
C         -11.87357897139152    5.32290093592291    0.38380133546345
C         -10.81828220504716    4.35090620656146    0.39356655821528
N         -11.25838679965617    3.30837361707582    1.06961607915557
O         -12.49983530233801    3.60995266701666    1.45393869999039
N         -12.88742376501156    4.81771267000401    1.05234590040536
C         -12.78914714080707    7.51837680853303   -0.25198037673285
S         -14.06250822145304    7.34477789170992    0.93064871740581
C         -14.92161243545063    8.73579825553045    0.32144070015105
C         -14.24918695199375    9.26627972087580   -0.76464919187378
C         -13.05077590131716    8.59429763235202   -1.08491539433119
S         -12.20394148942565    9.17463999469863   -2.48672412167848
C         -13.35489433252698   10.44233246800506   -2.88463515105711
S         -13.14624328572064   11.41543463950134   -4.17115259713700
S         -14.70726432726069   10.60354451042423   -1.77791163149198
C         -16.12787961823075    9.21798394820497    0.88702447093689
C         -16.75840140355887    8.63325495075751    1.93215523857592
C         -17.95735811615173    9.13738831544232    2.50080352584294
S         -18.76381820003687    8.32500580481277    3.82392187534701
C         -20.02785277546373    9.47591486327911    3.93060789585037
C         -19.86022998653569   10.46448138282556    2.99062110679346
C         -18.69145274458071   10.26306683875664    2.19038820295099
O         -18.55537229263107   11.25472563978050    1.28452828967735
C         -19.61705256930156   12.08065912013970    1.49659321686094
N         -19.72329366573087   13.23176513229169    0.67350769709299
O         -20.67947772242045   13.95367673130469    0.87764863349282
O         -18.86390138316084   13.41060566536687   -0.15985275225518
C         -20.44299466512304   11.66857002599191    2.50445721660563
H          -9.31055245111011   -4.24245214909402   -0.02707173607274
H         -13.21292056832303   -1.97440155551273   -2.20008987047100
H         -10.92140797143855   -6.53597639814245   -0.11403741440313
H          -9.16112216255710    1.78821060116944   -1.85085380692745
H          -4.51224612061403   -2.07078147900810   -1.43482047953463
H          -2.53620260021020    1.98370488604780   -0.88225872782050
H          -6.90047606644217    4.35699582359261   -1.10265948779962
H          -9.04815544510941    2.58513158568036    0.17203767042332
H          -8.01222520654159    7.85658482586875   -2.48871807318744
H          -9.20735442482407    6.82663756596585   -3.31396553772921
H          -7.47294234971943    6.42146841047882   -3.39144376066586
H          -9.66288168738614    9.92157646056360   -0.91286222329932
H          -8.85064083120040    8.67397924022407    0.07391495808428
H         -10.55429088167660    9.09142751123634    0.38927496005629
H         -16.53994719396022   10.10938018052478    0.43308811716056
H         -16.34964579653534    7.73489909839759    2.37385741222326
H         -20.80199473536554    9.36155187022212    4.66076933728354
H         -21.33046830747434   12.16612408849983    2.83625911443531
