98
 SCF done       -207.685231968863          0.000790472221
C         -14.72611695670689    5.47649294785563    1.13416099281175
C         -15.52198464986993    6.09886691699403    2.05915698345141
C         -16.87768206257222    5.77662552385215    2.27861419108309
N         -17.98098420174263    5.55106257832549    2.50055229110806
C         -15.10856227075137    7.16205826879073    2.89041661256886
N         -14.85535969443509    8.04392775246071    3.58013522647784
C         -15.15133144249029    4.44902444215798    0.19221269478299
C         -14.07066331362579    4.15012234379945   -0.67387873272855
C         -14.16337789445903    3.21879697368234   -1.67977091112657
C         -15.38283782804750    2.55433313557270   -1.84444762995129
C         -16.45641999277791    2.85672006510393   -0.97233795316374
C         -16.36117157341578    3.79504669323881    0.04791396556982
S         -17.86730621878944    1.91465876890778   -1.34608660195089
C         -17.00962015705414    1.14022067402017   -2.65201700453723
C         -15.73166322372905    1.56310881247578   -2.80183354406639
Br        -17.88032392753995   -0.15385275586425   -3.69257295971677
C         -12.89522946076768    4.95575590838631   -0.29557385955742
O         -11.77915366753336    4.85600492158363   -0.76120261604019
C         -13.33678150844556    5.78827876368949    0.85401964419362
C         -12.50184701127105    6.54583483841689    1.61701221703810
C         -11.19578617528848    6.95521619951538    1.21403806305268
C         -10.14485900937108    7.03270252074858    2.14869988739673
C          -8.79350670009725    7.29539526397259    1.73329960515810
N          -7.78303805979557    7.25913677571054    2.61273019559508
C          -8.05705222613374    7.01444469052598    3.87831391252230
C          -9.40895141378543    6.79788524355461    4.30171882293595
N         -10.40019894161375    6.79125348922457    3.44759532061480
C          -9.66886295546078    6.57769938814458    5.67923660112267
N          -9.81916941032495    6.40214864882078    6.80062503675421
C          -7.00447257530549    6.96293377036666    4.81849359290046
N          -6.17083650751655    6.91587233542498    5.60462569433383
C          -8.45805027429097    7.55290272225333    0.37505924030522
C          -9.52940406561331    7.62465362786874   -0.53098103168436
C         -10.87983053857758    7.32815099979617   -0.11050507054993
N         -11.74515456083009    7.50237160077045   -1.10706956785479
S         -10.96126536613225    7.94020448554118   -2.43091775050333
N          -9.47789846492585    7.96659202676319   -1.81813884683650
N          -7.13125686958396    7.67533251197658    0.11885833846114
C          -6.38509747360508    7.80482717356239   -0.99669420055461
S          -7.01073072145861    8.09049228673171   -2.58521968762202
C          -5.38575856442245    8.05210893385155   -3.20348231255000
N          -5.21615217337982    8.24597000643082   -4.58303052781453
O          -4.08496932787517    8.22019188441530   -5.02692163123996
O          -6.22939138494194    8.42754482881426   -5.23418807254499
C          -4.42726969938503    7.82100167260707   -2.25945017509062
C          -4.97320967959069    7.67796586214455   -0.96667482971698
C          -4.22809242426284    7.41363831889302    0.21688623322318
C          -2.94685401315143    6.94564939069500    0.24212527715812
C          -2.20640442309199    6.64146270988275    1.39902079496181
C          -2.46046855248150    6.97538058014635    2.71034945867142
C          -1.69265737964253    6.52980232136482    3.81637697662598
C          -2.09344060775612    7.02436515533850    5.02012249010943
C          -3.18360744456573    7.91687363771344    4.93432149849181
S          -3.71668718204576    8.06203726899787    3.28109086390730
C          -3.77169539395814    8.63453440753357    5.96116565942679
C          -3.51356624798837    8.52058428190506    7.34434694875497
C          -4.23104178536462    9.39145943938066    8.10761668028812
C          -5.07619570580887   10.24736944418636    7.36356130829112
S          -4.95757275992451    9.87836055017799    5.66062440729806
C          -5.82645837756937   11.29038642440445    7.86388937734429
C          -6.60245972019889   12.13746555874353    7.07449176073292
C          -7.21510737863463   13.30863765518452    7.45329825317028
C          -7.05233748202205   14.13989073697371    8.61629595535810
C          -5.93091764434501   14.24464854597344    9.40618351580889
C          -5.82528715310279   15.11518494514535   10.50894020449463
N          -5.69234883346120   15.78594299964508   11.43159926446494
C          -4.70865966643194   13.59439185777214    9.14437406388557
N          -3.67261506651042   13.13410799448927    8.95927553996663
C          -8.20235557265254   15.04097380940143    8.67195216810560
C          -8.94103430192930   14.90835045807474    7.46862596542460
C          -8.31784163881209   13.86239626612975    6.63180386203349
O          -8.64965773966012   13.49986492570333    5.52410423100556
C         -10.05397490289220   15.66642302813741    7.19983011165753
C         -10.46370896807749   16.59156177614472    8.16677061681499
C          -9.72906656551783   16.70401698306609    9.37067925875332
C          -8.59807381382352   15.94184472037077    9.64056858634796
S         -10.41212804987992   17.90118683717547   10.42754322587705
C         -11.65672453041087   18.23383585958229    9.25235711115399
C         -11.56765012788569   17.48680290959369    8.12646074804953
Br        -12.95134069045978   19.53934973992729    9.62137063872113
H         -13.32163777519536    3.01081085654974   -2.32161123415201
H         -17.20463952351879    3.98492461449298    0.69044218601559
H         -15.06132432625237    1.19145912179625   -3.55516593217274
H         -12.78674853270746    6.82373801180779    2.62359706975953
H          -6.60533050918178    7.57729746160471    0.99365475158925
H          -3.37968992396760    7.77931594597854   -2.49393219671140
H          -4.73555192875107    7.54370595219715    1.16217516121537
H          -2.46269940010401    6.71529638292240   -0.69633659714207
H          -1.30302008844389    6.06466449507521    1.24484825187553
H          -0.86818045743887    5.85168139565663    3.68425101819423
H          -1.61978327106241    6.79385826619548    5.95668543528618
H          -2.82366617517185    7.79688837183205    7.73822975150152
H          -4.16880311855469    9.46153982301443    9.17859914176063
H          -5.79224557095650   11.44124578803538    8.93336859003521
H          -6.80421596387640   11.82384944346903    6.05419969605162
H         -10.59218482799043   15.55241942870436    6.27201682026215
H          -8.07296139226386   16.06057737336116   10.57377637064617
H         -12.25088487466039   17.56264920763751    7.30040504554807
