83
 SCF done       -174.291030152016          0.000833426402
C         -11.62488304315682   -0.96123279883993   -0.04099824771771
C         -12.59425101862958   -1.06459803766669    0.92278003804732
C         -12.93612275719315   -2.26455451056586    1.57866794505867
N         -13.25359766484882   -3.21204892290652    2.14364361475319
C         -13.36853757497548    0.02190518712543    1.37787195033518
N         -14.01853535834750    0.88114487476541    1.77400534203322
C         -10.79778102736988   -2.05602967310950   -0.54446405529878
C          -9.90584726596892   -1.54693007978216   -1.52402184807834
C          -9.00135794197069   -2.33892257658383   -2.18918994935971
C          -8.97531205976584   -3.70161556581165   -1.87550095615884
C          -9.86754357722573   -4.20195871151607   -0.89734000600542
C         -10.78145961079821   -3.39920174130013   -0.22317635811321
S          -9.66942664273782   -5.91166138858914   -0.66780987859906
C          -8.40883884651280   -5.93232271127992   -1.87248205655723
C          -8.14740423631002   -4.72103968752506   -2.41932488514192
Br         -7.55786670011832   -7.54881717970610   -2.29543735229102
C         -10.14218882708118   -0.10812171883959   -1.67640055680044
O          -9.56232387130590    0.66742439497561   -2.43253909374553
C         -11.22507941733723    0.23250193864245   -0.74933841222668
C         -11.72130610839506    1.51277351849112   -0.67105282939430
N         -11.19798898901602    2.46887119121930   -1.44556214365434
C         -11.58535335169453    3.76169354655880   -1.56161544071351
S         -12.90281333123385    4.42690703017873   -0.65019025937663
C         -12.68379758056959    5.93204757782197   -1.48402457439827
N         -13.53527727600701    6.99539417984763   -1.15029795452978
O         -13.38061457228447    8.04679359034256   -1.74163407610951
O         -14.36665090685326    6.78152528945616   -0.28697701365749
C         -11.66699121520854    5.91615671041299   -2.40041697616982
C         -11.00943989416666    4.67242978122072   -2.45940201635679
C          -9.89513396596607    4.34369468946931   -3.30357932899070
C          -9.53834119736373    5.01459509968511   -4.41800148542206
C          -8.43456546376717    4.64246108886571   -5.23460442631954
S          -7.27099127775778    3.44171837428125   -4.68922887831482
C          -6.41606120320546    3.56379781661017   -6.17889341948915
C          -7.02180660820309    4.48402579435036   -7.04471045082764
C          -8.14805479666851    5.10291746971746   -6.50302065219858
S          -6.21368738494203    4.58837271014600   -8.58593208818540
C          -5.06157724581538    3.39072387804622   -8.06046978917442
C          -3.97142417024948    2.78211796432826   -8.67476895432536
C          -3.33272207859391    1.88706467106883   -7.83164407323088
S          -4.11137136070698    1.80942723084151   -6.25016163925731
C          -5.29475490937203    2.95796938547713   -6.74696126880602
C          -2.20698217124680    1.07008282827061   -8.04921228174546
C          -1.62280839246698    0.75168718021442   -9.24643555519992
C          -0.48478814244633   -0.08344469106955   -9.40412318292394
C          -0.14984384931697   -0.34207154068367  -10.69583641825457
C          -1.00716169145076    0.26554147481905  -11.64305740079108
S          -2.22431111038361    1.22494845030896  -10.82712980065292
C          -0.98687667526279    0.12822022586542  -13.01477187450188
C          -0.08062434821728   -0.62503323091026  -13.79853603710976
C          -0.36538743383087   -0.61924195553598  -15.12697473495418
C          -1.51715680923607    0.13619406259152  -15.47523410251907
S          -2.20390353222743    0.86993975796438  -14.03669194903834
C          -2.04377738462827    0.25486635495675  -16.73176028947450
C          -3.19847199221882    0.96198288738066  -17.11228511433731
S          -4.20191668438669    1.92794290881313  -16.04323768819413
C          -5.31100780481109    2.37017679139126  -17.27791296915267
C          -4.95007684083383    1.80774857706995  -18.48001674194967
C          -3.76267685505311    1.02255264417222  -18.37542648331282
O          -3.43750007420996    0.47652012428554  -19.56526839366934
C          -4.40138332411943    0.90223668663304  -20.42659402297698
N          -4.31737635851079    0.46817391328801  -21.77139896337699
O          -5.18973289667718    0.86240718119677  -22.52227047072953
O          -3.39826644206554   -0.25940880850525  -22.07778500926484
C          -5.34258407063555    1.70695537039292  -19.84327225192317
H          -8.33672453849077   -1.92132885502198   -2.92910315559599
H         -11.44077044113748   -3.82905401460058    0.51215610257250
H          -7.40287673120136   -4.55195585106873   -3.17562318940337
H         -12.53373553623844    1.78856876300903   -0.01121355318126
H         -10.42964270748637    2.12722658580872   -2.05602022981952
H         -11.40461467345035    6.78055851791354   -2.98198900793016
H          -9.31007042199199    3.47565387919484   -3.02820618083306
H         -10.12010171606317    5.85562058692611   -4.76843114934149
H          -8.74154572239261    5.83858691361456   -7.01381034062294
H          -3.64333062964488    3.00201965918919   -9.67265180991758
H          -1.77929318820090    0.60827318030679   -7.16855497344104
H           0.04060720212583   -0.47153227534006   -8.54945442303814
H           0.67388108315020   -0.96502388158083  -10.99404122994136
H           0.74750680692972   -1.15124517196237  -13.35931132776212
H           0.20395114846635   -1.13975781866004  -15.87631978446460
H          -1.53921859924114   -0.26238500734281  -17.53739223702992
H          -6.14348582632788    3.00172627118766  -17.04819746298767
H          -6.18426829472750    2.14921164549235  -20.33432980654376
