112
 SCF done       -201.636320626429          0.000695551136
C          -7.53515105698649    1.02834424928796    2.99566285874849
C          -7.46280543776422   -0.17349285816168    2.32219913879071
C          -8.39886698614398   -1.21408631861973    2.46595229639932
N          -9.13768230370179   -2.09249210276795    2.52533522382476
C          -6.48280601045182   -0.52095079571944    1.37645868421719
N          -5.72451991131732   -0.87302298563877    0.58542674951852
C          -8.60670470314222    1.39686054446774    3.92175519834595
C          -8.39820155664162    2.73236932732692    4.34066509271223
C          -9.28167687111634    3.40213363544495    5.14865080992857
C         -10.43521155576834    2.72295824327308    5.55827359284098
C         -10.61250215586878    1.37597738515731    5.17426093895264
C          -9.70864773731309    0.69396691723459    4.36562986092155
S         -12.09825153509117    0.72172696862648    5.79801061073172
C         -12.47091811085934    2.25943030050043    6.52649630138609
C         -11.52438028670571    3.20774798783162    6.33403381462204
Br        -14.08674999757466    2.47355290471982    7.45725381319170
C          -7.16212915894524    3.23516930362691    3.70998566605771
O          -6.65598557050863    4.33450343717839    3.89697803874843
C          -6.66759664421920    2.16405321086252    2.85640760473719
C          -5.53339744946879    2.22380876674865    2.05077020699117
C          -4.80543523332451    3.32826752060583    1.63999039387287
S          -5.39469872372743    4.95436573352731    1.84210759563181
C          -4.37703994743995    5.56025129494655    0.55779865564984
C          -3.34813833632419    4.61508366725465    0.25417896739690
C          -3.62465858783186    3.33122067292066    0.82355918717165
C          -2.74047072239099    2.25644231034964    0.61136252627806
C          -2.88669375247652    0.90125368187437    1.22887469135764
C          -1.62171237912187    2.49749525639180   -0.16748787633150
C          -1.30819607274044    3.76354320664139   -0.63715541930613
C          -2.12933132208891    4.85125462907838   -0.40394753715584
C          -1.61161401866153    6.21385821738336   -0.74993245620462
C          -4.84395456037562    6.74225106566548   -0.00420609491154
C          -4.54606321697866    7.36579079207238   -1.20852450843305
C          -5.22499629340534    8.46778853460329   -1.70918985738457
C          -6.47070887995641    8.96434221690116   -1.31242734220091
C          -7.01016977682272   10.22410645882929   -1.60799972707644
C          -8.26655257362987   10.44578949490145   -1.08382637254244
C          -8.78721774722560    9.34507163955292   -0.40573614761444
S          -7.64307508631644    8.02514415461798   -0.42295601117615
C          -9.95588585280924    9.17103777113230    0.35023006187793
C         -10.74216449710648   10.09109943565869    1.04850700494770
C         -11.57065349202035    9.49910263896804    1.97690595386664
C         -11.46797326055149    8.09980205229066    2.03248527153448
S         -10.41015031553045    7.54220792722911    0.76403341743431
C         -12.12626137557977    7.24699509152207    2.91701738715929
C         -11.97817401218957    5.87622562869410    3.05545179889165
S         -13.34011474733492    4.99803179651347    3.70519967287845
C         -12.78830929205142    3.48279929868398    3.04529858915825
C         -11.52691267027891    3.64181639107366    2.39760058957486
C         -10.99884729143682    4.95801061410388    2.56562147715651
C          -9.63170076589423    5.20451247798664    2.33216312215660
C          -8.87189186528338    6.33065358216289    2.95644945655055
C          -8.94827957397557    4.25799562781848    1.59502292497684
C          -9.54550503019484    3.06517085373207    1.20422985337368
C         -10.79737493013974    2.69025378178745    1.65318424467910
C         -11.30814370815402    1.32826561739976    1.30445706671484
C         -13.54634612833961    2.33769688319164    3.27113160785250
C         -14.70714475746606    2.32493214122052    4.01406073814707
C         -15.39563710552182    1.15250478726358    4.31908633461422
C         -16.54934597351832    1.04483900563333    5.06232893603873
C         -17.50221278420788    2.03381221983287    5.48506557845378
C         -17.80348338147018    3.21742329166856    4.85087756890905
C         -18.78369764803696    4.12293584104661    5.29959440224137
N         -19.55646569208826    4.90881301391794    5.62420731208357
C         -17.26100877802999    3.62162046059633    3.61509329774665
N         -16.89623921669376    3.98615103975498    2.58859222904487
C         -18.26383811370262    1.45904665242310    6.59245837801602
C         -17.92210002195402    0.08907242275922    6.71486990475683
C         -16.88024743408912   -0.24000621931491    5.71836088318125
O         -16.36936045400765   -1.31904608190596    5.51006217931168
C         -18.50103930489861   -0.73513416834725    7.64726330869505
C         -19.45848854160205   -0.18008672058224    8.50446125882290
C         -19.78320991362215    1.19044021023014    8.38144108014822
C         -19.20033733780583    2.02471632261078    7.43428721922142
S         -20.98468193532564    1.66968934873106    9.54206347037121
C         -21.03652065801640    0.04216866316172   10.16506634234106
C         -20.19703202923496   -0.81637496087901    9.54013979559416
Br        -22.19482073302634   -0.36915658000426   11.58252878760701
H          -9.10460697802921    4.42286762474589    5.44853471389854
H          -9.88707310294464   -0.33608502731611    4.10589571859275
H         -11.59285902428770    4.20967844883633    6.71705050034195
H          -5.22225806642382    1.28629369526024    1.62273561032989
H          -3.63643233689192    0.30210691532545    0.71007787325417
H          -3.16413404945996    0.97575893717388    2.27898641729988
H          -1.94222105706399    0.36583818039683    1.16164786413592
H          -0.93402849749759    1.68671616947130   -0.35751652833358
H          -0.37399433581492    3.91505736272210   -1.15785439939315
H          -0.55114428592276    6.26080025923497   -0.50610062877253
H          -2.12799882433705    6.99095783685215   -0.19471142404421
H          -1.70178405620953    6.41208770143668   -1.81799702264598
H          -5.62753335667697    7.20112124055067    0.58573656295043
H          -3.72508247350472    7.00043919611415   -1.80322898926797
H          -4.75308394618472    9.01145388160265   -2.51861475318143
H          -6.45585279706129   10.95929227130078   -2.16450878898938
H          -8.81512488250514   11.36378674652389   -1.19699499953426
H         -10.64227297218408   11.15358171608203    0.91758145012226
H         -12.20476164774664   10.04749580408253    2.65102421244640
H         -12.92547164500007    7.69921847046287    3.49306725857841
H          -9.51320215880696    6.99443214274765    3.52825177898969
H          -8.32182551705204    6.90447077496306    2.21378740640625
H          -8.12257448829883    5.89807833596263    3.62140079831426
H          -7.92151758580848    4.45009914553028    1.32619742255395
H          -8.98264376909115    2.37846402928456    0.58837602197560
H         -10.65516906150443    0.86853449452450    0.56580328788721
H         -12.31213003427189    1.38038850685187    0.88733970209368
H         -11.32051958016624    0.67762567670032    2.17909307196124
H         -13.20642352875111    1.40097603710190    2.86270518394867
H         -15.05860406100499    3.25873873531198    4.43075270785948
H         -14.93419269333856    0.20846773741484    4.04794345415921
H         -18.22731988223428   -1.77640185694460    7.71455534663073
H         -19.47582511963267    3.06487008687930    7.38213080093154
H         -20.10078129232948   -1.85557810583445    9.79644469293978
