108
 SCF done       -191.032346812690          0.000825940316
C          -6.79536796521322   -1.15653739895381   -2.04392261785259
C          -6.69539632187720   -1.58960746010168   -0.74730354851299
C          -6.52724818543437   -2.94041237386223   -0.37731672159912
N          -6.40779699087252   -4.02230419390060   -0.01186322843991
C          -6.74660956239586   -0.77366059073316    0.40241542374798
N          -6.77306349975475   -0.18970138198885    1.39120866965014
C          -6.67545532034373   -2.00218196515456   -3.22634584760596
C          -6.78931991374978   -1.18827874185226   -4.37884004815338
C          -6.70812541666044   -1.69075121105171   -5.65420424652614
C          -6.49645166215456   -3.06555381721469   -5.80119362402760
C          -6.38376275007375   -3.87179832468032   -4.64446064016501
C          -6.47089141868210   -3.36314150664136   -3.35430567521951
S          -6.12837975364042   -5.54176408156062   -5.05226753624838
C          -6.17387624607879   -5.13818072509843   -6.74755537884056
C          -6.37056261262551   -3.82226312491895   -6.99838850733845
Br         -5.96124156808604   -6.49198086828840   -8.02796039415879
C          -7.00227317111877    0.21043791703072   -3.96727089753304
O          -7.25271779052463    1.14491437355220   -4.70905908657770
C          -6.96646830983751    0.21127678246847   -2.49614026960281
C          -7.18229553940052    1.29163307569802   -1.68179294464999
C          -7.14536566956724    2.66731860662814   -1.98492392345873
S          -8.12023107001627    3.70368861348721   -0.96649311512042
C          -7.60012413393009    5.12853086218525   -1.80690416009299
C          -6.68136252860964    4.80692099880927   -2.80231943313180
C          -6.40839260276339    3.43407906976971   -2.88640363274464
C          -5.33242675642018    2.90702740671315   -3.78757907763250
C          -4.61716444529454    1.80338955839010   -3.19545887400763
N          -4.01326496576888    0.94083652350735   -2.74827907112446
C          -4.35208168089073    4.02424579811374   -4.16386611592607
C          -5.13203598443559    5.19234110097472   -4.74389919402882
C          -6.01560355506337    5.84466750801534   -3.67200217279481
O          -7.03596822489029    6.64838186969324   -4.24923990601114
C          -6.56524644860930    7.80230278231760   -4.89428902362468
C          -8.11515334728591    6.40594571761888   -1.46030318642790
C          -8.89063690033402    6.61145298310649   -0.36941162335721
C          -9.48491170561186    7.82938054900063    0.07015267282081
S          -9.76766381693301    7.95189247652263    1.79080632909530
C         -10.29432461171822    9.57425484957213    1.63066022218037
C         -10.28420721741483   10.01231443572024    0.34401667595417
C         -10.72517030411377   11.38034644803091   -0.06040135580853
C          -9.84449435622387    9.00950915978001   -0.57593268143276
C          -9.89704125630126    9.23953395877351   -1.99774915443216
C         -10.09188322505729    8.29136186924636   -2.93318673686130
C         -10.10193959603225    8.53468958608124   -4.33926984431275
C         -10.00393025580361    7.52569987489179   -5.22825486506263
C          -9.89338291320466    7.70351939440673   -6.64713846600609
C          -9.44279097720468    6.76012852615655   -7.48697804462235
C          -8.96254495878432    5.41456775365440   -7.03451653167606
C          -9.34219551089276    6.96825057726576   -8.97875100769208
N          -9.81540543470630    8.23759854288756   -9.47305512795191
C          -9.09174944171064    9.35882094585674   -9.45910581413339
C          -7.87215511126254    9.48739418653659   -8.85104080889650
C          -7.07422873900768   10.61911438286359   -9.02492910891078
C          -5.79184226609731   10.83679670920294   -8.57690718149268
C          -4.82286888487537    9.98533249817155   -7.94571381506626
C          -4.74081801930543    8.60863815077771   -7.97735541236705
C          -3.79831983933424    7.85759782446632   -7.25118835287818
N          -3.11071303046031    7.16675542521447   -6.64056144975386
C          -5.52515440728955    7.75079710312877   -8.76600061384543
N          -6.09127223551833    6.98009292808555   -9.40672305199518
C          -3.77883804171926   10.84811775721034   -7.38861897264267
C          -4.00511001433333   12.17648532656747   -7.82542639921714
C          -5.25546963679776   12.21388651358802   -8.61359378172123
O          -5.75841130422486   13.17819018525787   -9.15086779544002
C          -3.15828845457812   13.21192489504996   -7.51915414835938
C          -2.03607815013513   12.92739410385831   -6.73232573442211
C          -1.82754865242326   11.60260765724777   -6.28540897106016
C          -2.68123479496845   10.55268182876215   -6.60370703607022
S          -0.38783482753437   11.47274767090663   -5.31969559782471
C          -0.08654916059894   13.17659552985051   -5.53381938397006
C          -1.01625117443352   13.81194843518590   -6.28560234936921
Br          1.42632410347526   13.95515385684222   -4.74293097683814
H          -6.79954598594872   -1.04442780844059   -6.51314773507458
H          -6.37964380692547   -4.02081957221025   -2.50644237622077
H          -6.42491308774445   -3.40116010601591   -7.98571451466526
H          -7.45881706810779    1.08269099222193   -0.65498831394717
H          -5.81519996952109    2.52084321702521   -4.70101121444910
H          -3.63390563890972    3.65206559292779   -4.89557448922439
H          -3.79902986864293    4.34627398170867   -3.27791539007307
H          -5.77501494502721    4.83968078378910   -5.55459679339276
H          -4.43695942171099    5.92684827636718   -5.15311994209239
H          -5.38509848545202    6.48537123347926   -3.02584797166347
H          -7.44442867953929    8.40039768961259   -5.12776992446595
H          -6.03605071442426    7.55915370328622   -5.82089563403953
H          -5.89249134763609    8.37548316702245   -4.24444967502341
H          -7.86619157200541    7.21883286161060   -2.12416158177547
H          -9.03428439030330    5.77508116484988    0.30757351860518
H         -10.58906738473265   10.12074582207929    2.50514501012536
H         -11.03373271967717   11.94895317004091    0.81284402507145
H         -11.56389760438326   11.32059886464950   -0.75287491229190
H          -9.91334983484770   11.91486586396016   -0.55291199591207
H          -9.82421853080609   10.27436063864713   -2.30773652002271
H         -10.21150831773029    7.26103688660011   -2.63037535273805
H         -10.11332507398275    9.56422273624313   -4.67688078631570
H          -9.94860609949040    6.51610910665341   -4.84952778127951
H         -10.16580414554384    8.67974038894660   -7.02887680781112
H          -8.37507024483541    5.50398486652209   -6.12382432922763
H          -8.34914293755391    4.95143457976027   -7.80351660919376
H          -9.80449420270286    4.75343313583834   -6.82802852507849
H          -9.91217349847268    6.17739546502986   -9.47657582788343
H          -8.28743111496797    6.85036341149086   -9.27289968517746
H         -10.73124502932311    8.25868839498575   -9.89187937535628
H          -9.50597630015101   10.19412732106536  -10.01034723797603
H          -7.51772126541389    8.68584152222501   -8.22745996781442
H          -7.51252339634901   11.46627865113342   -9.54367919511516
H          -3.35117776061768   14.21065210267405   -7.87811535029960
H          -2.47471607769593    9.56094801600403   -6.23773138061380
H          -0.98541294216603   14.86077818022711   -6.51779105346717
