110
 SCF done       -204.489831675127          0.000759272595
C          -5.26629502828647    1.18289126518976   -1.17834923771000
C          -6.24318799165796    0.21544785482567   -1.24864927273474
C          -6.22881340433042   -0.85635798547143   -2.16060831026104
N          -6.25600795780841   -1.78550963886007   -2.83707682750036
C          -7.37178882508596    0.11307211317533   -0.41537749031052
N          -8.32348319707805   -0.05461592084439    0.20927228760662
C          -4.14591485273478    1.30302109657829   -2.10819249110951
C          -3.34189543008041    2.39871676085367   -1.71108848935303
C          -2.21208427826901    2.77698899198561   -2.39127995136527
C          -1.84798516817087    2.02396409141503   -3.51179948576709
C          -2.64296110501462    0.91953021830421   -3.89058130427517
C          -3.79988121143446    0.55088518247816   -3.21401872944750
S          -1.97119810711148    0.08991043920403   -5.26295244080962
C          -0.65867009131066    1.23732160901924   -5.31132827007397
C          -0.71891430913513    2.19416205237099   -4.35904798675027
Br          0.68183953967224    1.05428937717067   -6.60385938289742
C          -3.92114980020640    3.00457009559561   -0.49651923164856
O          -3.51145524598905    3.99121421379542    0.08527012455653
C          -5.10154468410778    2.19891153475642   -0.16706925857732
C          -5.82196397404974    2.27370351278601    1.00302177488647
C          -5.56820420703228    2.98708789095042    2.17854465542895
C          -6.19780036610645    2.64480489628465    3.41058818814961
C          -5.94282315363486    3.63660827550585    4.37139433235210
C          -5.09072236164325    4.66553711025947    3.90925442885571
S          -4.59241203166268    4.44298931953423    2.27408230939390
C          -4.86917438905746    5.51422600952108    4.99740376615411
C          -5.57451056821689    4.99220868661988    6.06429349296715
N          -6.21515520012430    3.84476914592573    5.70255867118227
C          -7.09080804981047    3.06977887642450    6.54254099003747
C          -8.55036830226052    3.48771183449846    6.37044010459608
C          -5.52408976651775    5.75115425165976    7.34179102160723
C          -4.35572927353193    6.73306211621332    7.17628979876487
S          -4.00659826820728    6.98634747052987    5.37690257397247
C          -6.94532523235242    1.44754349192097    3.62307609262741
C          -6.68706695524645    0.21435133252548    3.08853643293262
C          -7.56970890191696   -0.89747923413491    3.08151382274933
C          -7.14231497631241   -1.94538250886136    2.32515889704672
C          -5.87845949326198   -1.74060978251335    1.72697661581279
S          -5.18531436785657   -0.23041215160218    2.27055856312815
C          -5.26713073683143   -2.47615934005566    0.73053543246322
C          -5.75264216889361   -3.61959513452551    0.06307114772561
C          -4.97884013678315   -4.00384295905815   -0.98975900941707
C          -3.82884810700748   -3.20368253632429   -1.18918110785329
S          -3.75778582908018   -1.94147399207219    0.01438805637400
C          -2.87255577935967   -3.41631392096510   -2.15650686082661
C          -1.69153256131359   -2.70640405118672   -2.37111423553353
C          -0.64803210082202   -3.11220860655780   -3.24418082396677
C           0.30548737811459   -2.07185235206135   -3.37011810041098
C           0.03270689790080   -0.94936697298689   -2.56430147936174
S          -1.42484463710841   -1.12800107084846   -1.65485353240778
C           1.08896787790042   -0.05408542393291   -2.74173262181432
C           1.96542901710837   -0.65067825616424   -3.62718502079351
N           1.50775622492287   -1.87943334639932   -3.99857197012453
C           2.19138155821511   -2.78870417547338   -4.88510368173010
C           1.69469814458840   -2.67538661787685   -6.32453936180412
C           3.21203543460085    0.09189979504631   -3.94982990896811
C           2.97747983453108    1.51793452658435   -3.43177688876157
S           1.60766702338499    1.51912011300801   -2.18502194860630
C          -0.55169425787185   -4.37065892798419   -3.88337665285732
C          -1.04589462239855   -5.60186815015348   -3.53713506083124
C          -1.63536279413445   -6.12954274314072   -2.33302310734392
C          -1.46410430331863   -5.64525740507196   -1.05517224206155
C          -2.15012260870899   -6.12719363970679    0.07236146147657
N          -2.72582615564636   -6.44761279722496    1.01395062588561
C          -0.50702600223748   -4.66355992017745   -0.74048779289667
N           0.31925842512492   -3.92099090276902   -0.44928164239994
C          -2.30828616137092   -7.37535865869157   -2.68265492760875
C          -1.96188131514769   -7.72012185669309   -4.01364074712433
C          -1.10269285638288   -6.65691158389224   -4.57720225400915
O          -0.58046441788101   -6.62834696736900   -5.67134788162416
C          -2.40760429639327   -8.86988609254734   -4.61609668816541
C          -3.24754228200987   -9.71146847881738   -3.87665845816490
C          -3.59679567428288   -9.35127219053702   -2.55453759000832
C          -3.13484752752854   -8.19401768548409   -1.93818392386690
S          -4.65069709859977  -10.52739718771777   -1.82892549664092
C          -4.60423787614396  -11.47651165959029   -3.29128594164358
C          -3.84130588760362  -10.94144103486473   -4.27290409187420
Br         -5.56809759379107  -13.08371683868202   -3.38192810371412
H          -1.61683321162829    3.61421936114191   -2.06338680003563
H          -4.37511554616761   -0.29697970969307   -3.54662827369895
H           0.00171429437347    2.98219604049758   -4.24166082833183
H          -6.68096236106933    1.61764727884461    1.07184356679791
H          -6.78377737272071    3.21716898662162    7.58128675396223
H          -6.96334049743309    2.01296913447418    6.29139763327937
H          -8.68196717116053    4.52878789415499    6.65606513966775
H          -9.19090160777278    2.87156107205991    6.99558598482466
H          -8.85938868050191    3.37824432003004    5.33342830527285
H          -5.35756245517126    5.10680597780477    8.20776018090987
H          -6.46416581684228    6.29131218836014    7.49796134649644
H          -3.44126590783041    6.33119591489886    7.61242969370096
H          -4.55906952515326    7.70826019162632    7.61115268845716
H          -7.81284240628565    1.51609001569348    4.26635470019844
H          -8.52661432866840   -0.85399419468673    3.57009825639721
H          -7.71231369222002   -2.83984336336166    2.15243123338626
H          -6.66280517071171   -4.10851286383569    0.35822654813169
H          -5.19760868701019   -4.83602899228791   -1.63479227781552
H          -3.06851953099083   -4.23757273221868   -2.83355804815765
H           2.04738765614476   -3.80577664404234   -4.50978375047700
H           3.25830208677314   -2.55603163142236   -4.84243198641531
H           0.61843116670744   -2.82087530131703   -6.37462277522363
H           2.17476601958877   -3.43167976897879   -6.93866173505093
H           1.92599401701120   -1.69526411813787   -6.73346656520789
H           3.41860148371753    0.11192255332987   -5.02180566705356
H           4.06691624439027   -0.36793716920447   -3.44264990380106
H           2.66444244355380    2.17848448788707   -4.24017226028159
H           3.85441451982678    1.94023078673860   -2.94818560923347
H          -0.03365088509091   -4.37833869701943   -4.83646607800610
H          -2.12072719046459   -9.11495728270578   -5.62657774190987
H          -3.42524690079488   -7.95875265306161   -0.92721473998164
H          -3.70180202166542  -11.39307590735290   -5.23808533007315
