115
 SCF done       -205.640601884005          0.000825426192
C         -10.15156881709905    2.22476218138975    0.18755424685173
C         -11.18669507541716    1.69633118712548    0.91835174257931
C         -11.01443118980325    0.99148500401215    2.12566380120602
N         -10.94549571846674    0.38043108904768    3.09700222733084
C         -12.55754984387152    1.72177152743599    0.58688210742854
N         -13.69463788645272    1.71070274046631    0.42352192011625
C          -8.75109780124420    2.18024991023118    0.59370675892773
C          -7.96422125827665    2.73263711595343   -0.44213166766978
C          -6.59692601205864    2.82525781155509   -0.37293044694463
C          -5.96745246449298    2.33497292971063    0.77428024735730
C          -6.76037656242040    1.80713273225213    1.81904647199001
C          -8.14623989842723    1.72392255755931    1.75140405974605
S          -5.78547273900080    1.29293937057425    3.16325902363941
C          -4.34653549663503    1.76769175650172    2.30150446924916
C          -4.57903185466615    2.29145661954394    1.07615859850911
Br         -2.67460301377029    1.53892594469507    3.10671644999264
C          -8.83591755591683    3.16040822170212   -1.55193738895584
O          -8.44892018374499    3.65412844762065   -2.59227710276368
C         -10.21756556324665    2.86788869764930   -1.11476090401575
C         -11.39242980429237    3.15745057011697   -1.75768923043946
C         -11.65194657578717    3.75272642987053   -3.00718653060231
S         -13.35626499444020    4.04821224185982   -3.37214146825549
C         -12.94749977181583    4.73476373357412   -4.89302970066011
O         -13.86446561776968    5.21156228355291   -5.73869607407233
C         -11.57172968558849    4.73354204246389   -5.13935185913797
C         -10.86591995468777    4.17217825551728   -4.05696473247741
C         -11.03149697252236    5.26277602237757   -6.35507501940808
C          -9.72516750450576    5.22149226137291   -6.72088032866251
C          -9.24766889789429    5.77673215055566   -7.92533879528146
C          -7.94411627026459    5.72157864333655   -8.34311841462754
C          -7.39620301074894    6.28715067044715   -9.52438357029414
C          -6.06079925055540    6.07961603890501   -9.68141700712481
C          -5.47324047510639    5.32651602733397   -8.63889537206284
S          -6.67926497109658    4.90118438596251   -7.44089820993831
C          -4.16271115178790    4.92449462587675   -8.48984859931238
C          -3.03284832927220    5.19191664623015   -9.29808672057055
C          -1.88128461961838    4.63409358215594   -8.83836634704488
C          -2.01905415905445    3.87902866914449   -7.63752890172493
S          -3.70612922136491    3.91626346551130   -7.13833603865995
C          -1.00670094195918    3.29012127977593   -6.93564633453512
C          -1.11154508346192    2.55091238934937   -5.71276396425026
C          -2.31571618422146    1.95246917159643   -5.30260337390428
C          -2.39819931406420    1.34702020218632   -4.07653915021651
C          -1.26844670342408    1.26876770101890   -3.23599554729867
C          -0.05267996685161    1.80090673142403   -3.65566577498502
C           0.01679666384481    2.42879146805249   -4.87985531974123
C          -1.64057745590565    0.56759787365831   -2.03098604425414
C          -2.99804399535263    0.20576996605285   -2.13421783175910
C          -3.59554157473573    0.69336054661580   -3.43319007999648
C          -4.69875773744872    1.71216597378222   -3.06069519738521
C          -5.42086208270013    2.39878667338954   -4.21182514583187
C          -4.15586066157372   -0.45999761514109   -4.27837691194708
C          -3.12822543215629   -1.56050557626305   -4.51660044453553
C          -3.63881177133418   -0.43776210462048   -1.11146093345007
C          -2.93701212462396   -0.74476197901369    0.06942783575400
C          -1.57423781507893   -0.39937075530203    0.15131765744389
C          -0.92596450389982    0.24603041014171   -0.87959905150324
C          -3.59781215840880   -1.30338265118516    1.21014185226950
C          -4.92223109974521   -1.61624640852662    1.27300009170184
C          -5.57231692341778   -1.92386483874534    2.47942407158067
C          -6.91139512824189   -2.03756992989670    2.74939915038049
C          -8.13240852567382   -1.87577643378647    1.99331830410481
C          -8.34945833334416   -1.31223885930653    0.75620247275617
C          -9.61896706319060   -1.13957633154543    0.16395118405025
N         -10.58440291683782   -0.92146339581569   -0.42094525164370
C          -7.45062583206979   -0.71541004422062   -0.14335310451389
N          -6.86906524619127   -0.17235537210599   -0.97620527534595
C          -9.23498580086025   -2.30976261389470    2.85283776077873
C          -8.73668366642894   -2.59638711400866    4.14673010455105
C          -7.27557382678383   -2.42474994990543    4.13939346727503
O          -6.50627707484480   -2.57544083882101    5.06366158889266
C          -9.54426130887747   -2.97389647788269    5.19060587892403
C         -10.91747991604080   -3.07977964778569    4.94686758845447
C         -11.40543785669814   -2.81558094667280    3.64625336900799
C         -10.58644067551029   -2.43763154458200    2.59088476428271
S         -13.12779542133553   -3.00999646208639    3.55548814831737
C         -13.16942428894028   -3.43849948534054    5.24420858782988
C         -11.95704177510705   -3.43725489592046    5.84771899250585
Br        -14.80795001192019   -3.85522139248470    6.05317158855426
H          -6.03334947514854    3.26233573913715   -1.17985309674041
H          -8.70288444115118    1.31977787448370    2.58112829655984
H          -3.80595020907240    2.62640116528087    0.40907614642590
H         -12.29653457381435    2.90593884559326   -1.21632762788780
H         -14.75871664298475    5.11049925660318   -5.38958213854117
H          -9.79611530952190    4.07914566690844   -4.02810948465798
H         -11.75355390135963    5.71955124521341   -7.01857385191932
H          -8.99793123078565    4.74614546354763   -6.07643030515157
H          -9.95447820326434    6.28775599010508   -8.56641747078993
H          -8.01252632162450    6.83262805168644  -10.21742449640721
H          -5.48360897668865    6.43749434405980  -10.51549269715875
H          -3.10097678295497    5.79694553940812  -10.18482317231490
H          -0.92395393928767    4.73830576564618   -9.31864250666283
H          -0.00519085672961    3.45635264250543   -7.31362220890006
H          -3.16087081071222    1.93264142023956   -5.96899691147783
H           0.82425512620410    1.72583688359026   -3.02958467504268
H           0.95194508710966    2.86143845073512   -5.20620188928301
H          -4.23111002815936    2.47728206215864   -2.43360085088134
H          -5.43457788302140    1.18176949328046   -2.45521704549915
H          -4.75944389585455    3.06913028107249   -4.75241619781585
H          -6.24676096646228    2.98584067425600   -3.81511523870968
H          -5.83733158165918    1.67655709604913   -4.90758938288052
H          -4.48367838877066   -0.06713066124712   -5.24123064550363
H          -5.02665565537883   -0.87395430681560   -3.76686708821171
H          -2.25413763443905   -1.16448481848798   -5.02998930414427
H          -3.55873317260285   -2.34892882322146   -5.12993503823289
H          -2.80282419145443   -1.99766737063653   -3.57492340223742
H          -4.68522852369374   -0.67390619327611   -1.20745442620442
H          -1.03350977627182   -0.63452850942719    1.05673383969913
H           0.11631510261337    0.51205044863445   -0.78627707726092
H          -3.00249470856911   -1.40277998676297    2.11055295340516
H          -5.51995641855267   -1.57551745971279    0.38089132317526
H          -4.94216870023001   -2.06715001863777    3.35370124561540
H          -9.13017345000230   -3.17502752321654    6.16619337957086
H         -11.01599691049774   -2.26350585804801    1.61942159172412
H         -11.80140004687511   -3.67621418440581    6.88398803828576
