85
 SCF done       -181.978888196692          0.000752859423
C          -8.99818042073006   -1.27690902072324   -0.56484750588859
C          -8.28939480949524   -2.40710786585495   -0.88023769930127
C          -8.68217616074967   -3.71271898573943   -0.51869325407321
N          -8.95559260826555   -4.79667584394029   -0.25809124158631
C          -7.06466370073719   -2.42244625554425   -1.58087559796998
N          -6.05965240876463   -2.51279646061903   -2.12815562379425
C         -10.21502800883636   -1.23068432332931    0.23595935757910
C         -10.58104231063550    0.12403472273352    0.42945023444685
C         -11.68546178970151    0.49682973493195    1.15673376980234
C         -12.46287796333290   -0.51498850885968    1.72868933015283
C         -12.09220512514598   -1.86655526532890    1.52677775354700
C         -10.97877151256719   -2.24366859880865    0.78587014024296
S         -13.19230347024746   -2.95512629015381    2.31481722439881
C         -14.12116732296642   -1.60028387417456    2.89924314928294
C         -13.63457776094273   -0.39318985898206    2.52438071158220
Br        -15.64361118662552   -1.90510962293722    3.95008167820101
C          -9.61884326639606    1.00127810177512   -0.25808816795837
O          -9.71388686220577    2.20309119947704   -0.38316212465809
C          -8.62080932199145    0.08722898519870   -0.88011605832850
C          -7.64349695880147    0.48481335361526   -1.74453085922783
C          -7.16731939429907    1.81600874090566   -1.82796136264530
O          -6.60955995079819    2.27667364323731   -2.97929768396070
C          -7.07846511467685    2.81603632943044   -0.87562594781682
C          -7.28953227336487    3.12252906756656    0.54762577537840
O          -7.67633501879773    2.44786724307980    1.46381611468585
N          -6.88115070988091    4.44923606957437    0.65198318054667
C          -6.39938603994404    5.01608133745145   -0.52778026209457
O          -6.04968674946548    6.16496271565915   -0.63591680556350
C          -6.48333774604636    3.92933153359906   -1.50178406351359
C          -6.22016317085973    3.56025579155462   -2.81953893256455
C          -5.67760851001574    4.28557364481870   -3.90858307383097
C          -5.42518364673590    5.61393029805946   -3.80023416306892
C          -4.94805598442357    6.43988117933340   -4.84436115664932
O          -4.90154448244072    7.77443159517352   -4.60213037489829
C          -4.49240538398598    6.22772497050288   -6.13475364210282
C          -4.23385622817520    5.19872520128145   -7.14914138107945
O          -4.38199509855100    4.00419839612239   -7.11522800064522
N          -3.75563957543183    5.92294269959335   -8.23382110150185
C          -3.67863184620573    7.30706682973484   -8.04280115675744
O          -3.29110475455331    8.09305621237497   -8.86771573188800
C          -4.16052750521599    7.49239863404485   -6.67483355718189
C          -4.44752849966221    8.43991622058382   -5.69693353727172
C          -4.41399646626432    9.85190519019788   -5.65871312993947
C          -4.98640468363438   10.48080416514602   -4.58639130614093
C          -5.12523629039895   11.84472358525716   -4.31668807228401
C          -5.86347432210363   12.25184724196033   -3.22186785066162
C          -6.12305873458769   13.55722987243960   -2.74133385067933
C          -6.92147959445304   13.59809615917682   -1.63308287623940
C          -7.34309863106150   12.32545276787105   -1.19305880584860
S          -6.67701110687087   11.07554890431829   -2.20980889108909
C          -8.17682305001348   11.95406185317663   -0.15083260115420
C          -8.83302775669729   12.73573427282697    0.82468829486434
C          -9.58415468090222   12.00261913600748    1.69318667257706
C          -9.57264787360994   10.60365781090920    1.44009064826150
S          -8.55223541365382   10.26233992021341    0.05981820526593
C         -10.23083504292159    9.64908322489016    2.17340844957934
C         -10.28017955750204    8.26289519429677    1.91932884580348
S         -10.96565936800830    7.18595942837775    3.13266986799565
C         -10.71950374970178    5.76382349844028    2.20618090453513
C         -10.14136864818764    6.07491727820306    0.99842940123104
C          -9.89458888004135    7.47622834510523    0.84475964130963
O          -9.36113515481800    7.72529794702149   -0.36862133477695
C          -9.24801157915870    6.51415244331749   -0.97702922356926
N          -8.68409805484947    6.48930651906520   -2.27281419582197
O          -8.55344266579868    5.38824949444000   -2.78223846779772
O          -8.36914048689799    7.53875803627814   -2.78693758734391
C          -9.70312938520350    5.47245584111963   -0.21409616249811
H         -11.93800724994894    1.53758263663427    1.28462829606429
H         -10.74220358732098   -3.28650265528093    0.65632111901137
H         -14.08299710076965    0.54465570328588    2.79687715281113
H          -7.18730907611487   -0.22104273697293   -2.42597565596915
H          -6.90300647428634    4.95727471430108    1.52463396535190
H          -5.51458221026497    3.75357562416210   -4.83503250406909
H          -5.62144115186734    6.13420671009854   -2.87214474986586
H          -3.48815595794073    5.48477421748969   -9.10370850574524
H          -3.98098238011219   10.37391437759595   -6.49664414300577
H          -5.42457530991912    9.82077320284529   -3.84620298598407
H          -4.67391748583544   12.58735305214717   -4.95867113636417
H          -5.71351378790668   14.42673924576268   -3.22486196574268
H          -7.22048097668590   14.50282037631371   -1.13388317289722
H          -8.73224553030745   13.80580407853180    0.86126845764590
H         -10.15499235996172   12.41744520098415    2.50518781259333
H         -10.76133195330499    9.98231565962425    3.05529959123888
H         -11.00169837888698    4.80697298038276    2.59254545943111
H          -9.73025719800158    4.43503580559018   -0.48286196192991
