95
 SCF done       -176.652566100589          0.000905265096
C          -4.57956286341994   -0.80869924894849    0.62073365764740
C          -5.27902152804942   -1.84207097831936    1.20274306677984
C          -4.75301077348708   -3.13122493292599    1.41437698332111
N          -4.38516969718431   -4.20093347871440    1.61557671313481
C          -6.60462067855493   -1.77595472000172    1.67215753687619
N          -7.68035783709897   -1.80413159971425    2.07822861316041
C          -3.20161967024816   -0.89868875275874    0.14213332846353
C          -2.82306957923635    0.36120457118414   -0.38232378263433
C          -1.58149601962099    0.60283455233811   -0.91451110755129
C          -0.66313804278346   -0.45347468524205   -0.93139470454583
C          -1.04838093704269   -1.70775708611588   -0.40579769822099
C          -2.30681246004621   -1.95104048449153    0.13349035808647
S           0.23625760141986   -2.87261329550627   -0.52539059271252
C           1.25854539137871   -1.67306767571684   -1.27073858885757
C           0.67122830897234   -0.46283493108483   -1.42280393660271
Br          3.00594434360113   -2.13112865003706   -1.77848684209874
C          -3.95801635872995    1.29437352942331   -0.24919784478164
O          -3.96844451725605    2.46495015772151   -0.59897132661972
C          -5.03927419506589    0.53658447407766    0.37260588434278
C          -6.30217663515832    1.01649913229055    0.66647993602763
C          -6.86137893756862    2.27454199495853    0.48405374653016
S          -6.06431839664642    3.67314066881857   -0.18504099772276
C          -7.46532274080850    4.66634282555489   -0.00659768272411
C          -8.54176302405671    3.94624042731572    0.55817502663602
C          -8.20290412813121    2.59446066354286    0.83837208536418
C          -9.15938642316149    1.73941516281681    1.40520475656376
C         -10.40915278286638    2.23192390579802    1.67844528798978
F         -11.33764434088801    1.43067452472273    2.22030541913209
C         -10.74359191068918    3.57049739281506    1.40119712426951
F         -11.98064036224633    4.01287645861418    1.68627172702754
C          -9.82934467964665    4.42483587877577    0.84836680083226
C          -7.48255939730614    6.02754053949309   -0.39028510783700
C          -6.42734714877145    6.66172753068058   -0.96204391885841
C          -6.35286805995003    8.02964926482088   -1.37349448951881
C          -7.03621614499658    9.09476193977988   -0.91065957493563
C          -8.02712146233642    9.06319809928413    0.20955047171873
C          -6.85609346178484   10.43619334774701   -1.57907647339222
N          -7.90048796932751   10.62614065989168   -2.56521641163222
C          -7.76065601424574   10.29127554237241   -3.86547929545182
C          -8.79965247323597   10.08787774468777   -4.71986399932575
C          -8.63868530176354    9.85039015868374   -6.09485350789138
C          -9.66891978490992    9.60331012378857   -6.96641180227502
C          -9.57774963694537    9.37593656108519   -8.35974923439240
C         -10.77338631319800    9.14177245620020   -8.96977572134942
C         -11.88037897657445    9.16029996675596   -8.09324525202954
S         -11.35506259886752    9.50784380237615   -6.46250923322494
C         -13.20993079731337    8.92311853182047   -8.38859086503611
C         -13.77529991914662    8.62951416545590   -9.64779374507507
C         -15.11551034263009    8.41039331376750   -9.59557195432363
C         -15.69215396359597    8.51193552154945   -8.29662552692957
S         -14.44367572689820    8.93335478754293   -7.14107230475592
C         -17.02196397029004    8.26623106922693   -8.07666154434897
C         -17.81830042629690    8.25583821135105   -6.89975234983752
C         -19.16641860246973    7.85136659414514   -6.99822987835252
O         -19.58431162691429    7.53925080844615   -8.25766206469739
C         -20.59973754040129    6.58305924426850   -8.48343676290643
C         -20.02600193689651    7.82433230201697   -5.85961769186627
O         -21.32447149067820    7.47200535604276   -6.09475764263034
C         -22.21495712528032    7.40911555191906   -5.00729378597271
C         -19.56238273685626    8.15599104653188   -4.60633204381266
C         -18.22912045079941    8.55501726910919   -4.46640279929865
C         -17.35538913326279    8.61909026662440   -5.60648806454336
N         -16.14476146091461    9.03790215223563   -5.27093678235620
S         -16.09743556217708    9.31868528971421   -3.68071100935994
N         -17.62311348420604    8.92524866463154   -3.33967321423682
H          -1.32460527829343    1.57444574505222   -1.30649605234074
H          -2.54942022430484   -2.92616630455375    0.52079445242110
H           1.15682132565512    0.38899091885437   -1.86289649249925
H          -6.98033317863536    0.30244816135935    1.11105770451583
H          -8.94799881334315    0.70736005450544    1.63606816205779
H         -10.11317182809078    5.44423910660932    0.64578251182281
H          -8.41565164113955    6.54861259656752   -0.24786715450029
H          -5.54546820698392    6.06797056896057   -1.17026041092919
H          -5.60285221001724    8.21998241979177   -2.13274457156852
H          -7.75364213538037    8.30538324742600    0.94016052418773
H          -9.03122681037638    8.83835685252073   -0.15331081410811
H          -8.06457680884919   10.03085696946097    0.70771787819277
H          -5.89317991415558   10.49803603179490   -2.08951304494224
H          -6.92037124616562   11.24865974174866   -0.84824827547447
H          -8.84440730805199   10.61222817047411   -2.20325863574928
H          -6.74070707798258   10.24186149408917   -4.22200059428503
H          -9.81168678249573   10.11629099303613   -4.33753055118357
H          -7.63566233359230    9.85901923616553   -6.50107576474425
H          -8.62927524203885    9.39383020669929   -8.86773473229458
H         -10.88824856690991    8.95029997309582  -10.02159327199898
H         -13.18899352046007    8.58563805473782  -10.54858324439887
H         -15.72306728898312    8.16837577576345  -10.45020914165190
H         -17.57604944680047    8.00513353697932   -8.96927385615865
H         -20.50138972620194    5.72391599110852   -7.81621411065399
H         -20.45832612128112    6.25770900648983   -9.51488576936040
H         -21.59641741827810    7.01589878243486   -8.37302519692192
H         -23.16710525999449    7.09381871579622   -5.43128042709346
H         -22.33594034831377    8.38605709210808   -4.52999055115346
H         -21.88896633830878    6.67648435715995   -4.26287301735091
H         -20.18965533528662    8.14135881822172   -3.73294491833785
