130
 SCF done       -229.340142838868          0.000746703724
C          -6.84759066865466   12.82705296627355    5.22535134422424
C          -6.82931970332490   12.73590672497600    6.59101094808179
C          -6.62514762097062   13.83179094483635    7.45509950220001
N          -6.46150709389635   14.68760641746909    8.20217174483436
C          -7.06210395779138   11.54336561826466    7.30825771278683
N          -7.27002357246502   10.61129871464357    7.94550778575372
C          -6.73237314500720   14.04579108745547    4.44062013058712
C          -6.99858971230270   13.74740539222653    3.07993977843611
C          -6.97766718572888   14.70604508463523    2.09595603870420
C          -6.67676372216845   16.01984022083365    2.46933014190275
C          -6.40502226652791   16.30694541746571    3.82949845975005
C          -6.42802835028430   15.33998552560620    4.82516319190745
S          -6.04891352188503   17.99082257703961    4.06827868186445
C          -6.26931554305399   18.28301235091509    2.36327458189444
C          -6.59221393200255   17.17796237872384    1.64967533321737
Br         -6.05218667640324   20.01841991106344    1.68708679640749
C          -7.26957209357715   12.30347244240401    2.93407969112373
O          -7.54059903749125   11.70767904623516    1.91693526986839
C          -7.08175302383875   11.73127752753883    4.29662350933024
C          -7.03012036277816   10.40441080343887    4.53759023899243
C          -7.27571134756141    9.40677868827615    3.49953375458042
C          -6.24025949531517    8.79659150087968    2.86694919457940
S          -6.71794440617852    7.73188187696850    1.60335371952420
C          -8.38395650136918    8.06181043038329    1.95178875198830
C          -8.55548726351296    8.97710460114165    2.99972105703243
C          -9.85757414299625    9.28417287141928    3.46031480913599
C          -9.98914517802798   10.12656068396329    4.70365642222827
C         -10.30985487705390   11.59787622309304    4.43799317220751
C         -10.96084292537951    8.74370324543078    2.81376709169142
C         -12.36118802182635    9.13771335574444    3.19160110531251
C         -12.88859102629910   10.21175903241021    2.23457334492296
C         -10.78779941451500    7.81797545780547    1.75440109537201
C         -11.75811734765663    7.01245385228540    1.04615848857889
C         -11.15522006737345    6.13643113301030    0.18933452339175
S          -9.44236894370079    6.23633560342983    0.13956164911265
C          -9.48631072643068    7.47435735399142    1.35383270826785
C         -13.20315316311828    7.00343724785247    1.15688352341782
C         -13.91025845154322    5.85138330318923    1.20279248892676
C         -15.32188573390891    5.77985763007838    1.24015359059568
C         -16.01541145133411    4.61124515235971    1.38151705454642
C         -17.42493766741259    4.43621248533598    1.41201339416124
C         -17.82845573769427    3.15045759849201    1.58400909448806
C         -16.76408985317614    2.22417805126735    1.71134463340082
S         -15.22460027839287    3.04950693033434    1.57640917220327
C         -16.83472537803609    0.86967661141150    1.94059159239660
C         -17.98819267845269    0.05632008412286    2.06480207772038
C         -17.72025930715828   -1.24559963429424    2.33337320009594
C         -16.33239264640591   -1.55985929400696    2.44208117867811
S         -15.38820041294434   -0.09436611659745    2.17395086508025
C         -15.82844025990427   -2.80576304646129    2.65385058146836
C         -14.44008997282725   -3.15228084932345    2.80382103450545
C         -13.56573598062019   -2.24830012414326    3.34694776860243
S         -11.94287324020394   -2.77754357703128    3.45775155937265
C         -12.39247445372475   -4.28050956754825    2.71787115222150
C         -13.76273130560561   -4.38330229971882    2.42979226343080
C         -14.22206806481556   -5.57683218660455    1.81751226739039
C         -15.70078089276062   -5.76466841716319    1.59172943432912
C         -16.17385380354570   -5.05326281753248    0.32289846025247
C         -13.32638415252070   -6.56699216682238    1.42579880106180
C         -13.80660033267307   -7.78203805866691    0.67393599688807
C         -13.95569909049981   -8.99293441870743    1.59729307985063
C         -11.95022289932875   -6.46193905992197    1.74684612929070
C         -10.84276215789390   -7.38473829272624    1.58215217628662
C          -9.69127132557996   -6.89134023579180    2.14118357194609
S          -9.82799743992860   -5.33416789860810    2.82461422949662
C         -11.51857139860381   -5.31214136505803    2.42274473909187
C         -10.81300752644954   -8.67197195021871    0.94211358523973
C         -10.02496778132124   -9.69641295318085    1.34675183119589
C          -9.98409811470126  -10.93662676001921    0.66614624739127
C          -9.42214767744315  -12.09571379970289    1.11175338201463
C          -8.93408884887127  -12.47057725201369    2.41977998722751
C          -9.40961310482072  -12.01518364582719    3.62367795774103
C          -8.92720687225816  -12.45548983977496    4.87263480791458
N          -8.55016098725245  -12.76907954636148    5.91076361543234
C         -10.51448799408491  -11.14753334468842    3.74935504223100
N         -11.44611539749974  -10.49275963149492    3.89707537867399
C          -8.02441706768808  -13.59707161063821    2.23639935414867
C          -8.12945159997587  -14.04940717303941    0.89628349817686
C          -9.06909849671837  -13.17778353706289    0.15889466211785
O          -9.43714257197572  -13.28775292923530   -0.98867381195258
C          -7.42081094688813  -15.12762938974815    0.42583124215857
C          -6.56126533201652  -15.78270506788600    1.31459163732550
C          -6.45545408969002  -15.31569342131803    2.64636393726167
C          -7.17873746165771  -14.23043037380228    3.12634338249880
S          -5.32846790998756  -16.26355610362027    3.56848098170621
C          -5.02238968124928  -17.26382297399753    2.17325829501058
C          -5.72488610325441  -16.90685477993846    1.07214107172319
Br         -3.80085985533851  -18.68128514261977    2.30137227410918
H          -7.18654918830148   14.44961804831135    1.06911373051273
H          -6.20877267000428   15.60444155444686    5.84627846594328
H          -6.76302169850706   17.17774376081309    0.58866019727378
H          -6.68974822386310   10.03341885047230    5.49769182694630
H          -5.19453894361513    8.96046400444744    3.04286311477672
H          -9.04273436912109   10.06838404522868    5.24826968761644
H         -10.75093996835381    9.70368955607156    5.36206156529208
H         -10.10732120958069   12.19119406964190    5.32822491117256
H         -11.35552249452484   11.73060301110017    4.17810925227791
H          -9.70719383448456   11.98068722864415    3.61816888105544
H         -12.39983628281908    9.52404199060339    4.20848897786836
H         -13.00424273496182    8.25640911694676    3.15101689811390
H         -12.29847182659107   11.12056566300684    2.31833069180730
H         -13.92556992273385   10.44898250599172    2.46462906313051
H         -12.82336361871366    9.87995322387607    1.20119932656138
H         -11.65115642683621    5.44377312953842   -0.46253247789394
H         -13.73344874958328    7.94317897767882    1.15146010958074
H         -13.37988751693915    4.90824220884689    1.24642172186476
H         -15.88835286348588    6.69792680185711    1.15466047094418
H         -18.09083335539245    5.27477855790827    1.30583713613513
H         -18.85669799341492    2.83896971921845    1.63354066162993
H         -18.97809558643219    0.45934156643786    1.94501429998788
H         -18.47008677961733   -2.00707314439416    2.45925153671366
H         -16.56681387842313   -3.58694087566934    2.73157680897499
H         -13.80899208165929   -1.28566507501281    3.74997286892972
H         -16.23836160431938   -5.38920057683961    2.46072473830266
H         -15.94628908076558   -6.82289764303531    1.52842015293282
H         -15.94710853940994   -3.99081459618466    0.36953849685546
H         -17.24764781138934   -5.17396644472617    0.19708515924443
H         -15.67503774545022   -5.46653837666348   -0.55096892910921
H         -13.10418576891849   -7.99925879119190   -0.12911518009245
H         -14.75771674562571   -7.58222718319856    0.18468094418758
H         -13.02447111236197   -9.21622990407421    2.11192738863576
H         -14.25360705176719   -9.86963082776801    1.02637456079901
H         -14.71455166731312   -8.79896557819640    2.35178014368597
H          -8.72794654065495   -7.36318161687235    2.12860103918058
H         -11.45786851711168   -8.84570587725017    0.09533380220477
H          -9.41265243264834   -9.58284504060271    2.22971684636368
H         -10.37016662882663  -10.96458350158652   -0.34734346632258
H          -7.52487687680160  -15.45670606058235   -0.59616543437440
H          -7.06317021298662  -13.90615204713887    4.14748232372459
H          -5.65700161813044  -17.41317593988282    0.12662244663151
