103
 SCF done       -198.930234680571          0.000352039014
C          -9.55965905412192    4.76504110509246  -15.31118314478520
C         -10.16290027146489    4.07410664968884  -16.32625099941989
C         -10.30627496976640    4.56892782109106  -17.64108028903292
N         -10.46297637731811    4.91652131153756  -18.72334798667380
C         -10.75218211913029    2.79655013924957  -16.20866245198163
N         -11.24472716780425    1.76016689175707  -16.19782856827262
C          -8.94932000203944    6.08312569126461  -15.42267283085179
C          -8.58376205769484    6.53861299436440  -14.12898395167836
C          -8.00154561314636    7.76571245574488  -13.91131286445859
C          -7.73735135641260    8.56244654924564  -15.02890308258048
C          -8.06338103373380    8.08139377739496  -16.32080665679927
C          -8.67964834764959    6.85595643161024  -16.53724416089943
S          -7.59928760906661    9.20749787079114  -17.55716463613827
C          -6.99751351186896   10.30183260636695  -16.33919461514771
C          -7.13807330384981    9.84954144956708  -15.07087951146360
Br         -6.24262634269222   11.93482248009854  -16.86877393245067
C          -8.92368458112506    5.50534788935654  -13.14108808093368
O          -8.94960235518458    5.62894361227792  -11.93536827397384
C          -9.38619301996230    4.32448645441661  -13.93399041577965
C          -9.60319836701592    3.07859427660742  -13.43440190158559
C          -9.08941116071775    2.63534154747520  -12.18371092749329
O          -8.01401819056884    3.26289211629412  -11.64490094046581
C          -9.42444485286334    1.57904230535650  -11.35529110694848
C         -10.36831755419550    0.46874733266532  -11.14812557339874
O         -11.29417921124696    0.08170085157443  -11.80572753441825
N          -9.94991829621410   -0.09196752149008   -9.94024394053166
C          -8.85972658914474    0.52893011461903   -9.33827794652980
O          -8.36136854699910    0.20409712301504   -8.28977835155314
C          -8.52322082133506    1.60967605076735  -10.26450878474301
C          -7.65817714230568    2.66895115009480  -10.48864526495212
C          -6.56605961603508    3.21912685212437   -9.77114970974244
C          -6.13852020265767    2.78292641310371   -8.56604495219368
C          -5.10678840958341    3.50494848681796   -7.89062997259455
C          -4.68198743898338    3.36090068612895   -6.62618970700520
C          -5.16029328671605    2.32285940014270   -5.66688547287233
C          -3.68514880703483    4.33837403727459   -6.02525946836502
N          -2.95586520190133    5.14253354373789   -6.96924499050933
C          -3.55758974260551    6.07327482504066   -7.73707811645232
C          -2.96341774001068    6.67835184640198   -8.80147954332226
C          -3.59335700754467    7.59769033653980   -9.67466008359182
C          -4.99648426177970    7.79309036689819   -9.79552792439845
C          -5.53472240375779    8.81677516341610  -10.62966096056148
N          -6.87285454388409    8.98151080638218  -10.70778341680668
C          -7.66410830480758    8.18393104300016  -10.04191584764067
C          -7.12781579627106    7.11775092765309   -9.25857035268352
N          -5.83600084140431    6.95760717187857   -9.14420665855544
C          -8.02222513755320    6.13337335415612   -8.58669839929049
C          -9.13116911846675    8.39052822281774  -10.17926985478945
C          -4.72836066159764    9.66765718548876  -11.43134334545464
C          -3.34478960132609    9.39069161954625  -11.41381829508614
C          -2.79726105610756    8.37597172283247  -10.54919135334379
N          -1.46806380065079    8.30713234550752  -10.64088699188103
S          -0.95772499157681    9.39918974998911  -11.69701470909538
N          -2.38589337532413   10.02962159586329  -12.08731360867996
C          -5.32248791306313   10.77464534751243  -12.08327035393258
C          -4.85662351483671   11.53217019800084  -13.12210460724235
C          -5.36684898186664   12.91286793102182  -13.31982102207182
O          -6.33172875026674   13.41611337112978  -12.78668469768532
C          -4.42750145796875   13.53791852005238  -14.27364520241259
C          -4.38225126101869   14.82606031301940  -14.71835244609122
C          -3.37804364359774   15.20171935016718  -15.63968963952363
C          -2.43454991472130   14.22913075089142  -16.08027852103382
C          -1.43312325440218   14.61393640304692  -16.99232476236286
C          -1.39015474926373   15.90575683837960  -17.43729205588275
C          -2.31066056991936   16.87541603561188  -17.01971996596261
C          -3.28843036127518   16.51884349408317  -16.13264497793317
F          -0.43155128225147   16.27509318574530  -18.30926555295563
C          -2.51319595641783   12.89672350508479  -15.61104481294161
C          -3.49773683629278   12.55685866625463  -14.72555523763850
C          -3.85008342598368   11.27882787378806  -14.11768232099942
C          -3.48704461301024   10.03957774374761  -14.58749327822389
C          -2.53525814213928    9.82738532410127  -15.60051973574838
N          -1.75207539818950    9.59382609539028  -16.40786178907092
C          -4.10539660938279    8.85241975608069  -14.15818071101635
N          -4.62818096574910    7.86859012272420  -13.87397387978587
H          -7.73375834848038    8.10083934259472  -12.92150034211346
H          -8.91855065418102    6.53724606555417  -17.53808762971090
H          -6.83597769069284   10.39270543417472  -14.19446783453048
H         -10.13966299859657    2.33112164600833  -14.00225165228398
H         -10.41507602857173   -0.88953782190588   -9.53021258431513
H          -6.10718344351567    4.08141653892671  -10.23587749582090
H          -6.61082457209557    1.92840831404497   -8.10454036761381
H          -4.68784262557833    4.30462684942060   -8.48799496708086
H          -5.95322710346658    1.71623467156881   -6.09031074839916
H          -5.52664566766953    2.79283209614918   -4.75464818705778
H          -4.33570755597719    1.66686084537238   -5.38706275175989
H          -2.96647038218998    3.79300288537843   -5.40799906755546
H          -4.24535432307010    5.00899783741940   -5.36007011269868
H          -2.08558950564325    4.76362125331710   -7.31560654251086
H          -4.55703354725751    6.35792142256273   -7.44249596596253
H          -1.92230815260969    6.47611776491124   -9.01655002293981
H          -8.70645464519873    6.63864493684941   -7.90699740215344
H          -7.43194276214957    5.40643759949859   -8.03585041211238
H          -8.61519106255763    5.62054413296288   -9.34271562432390
H          -9.32220805826891    9.28079883911104  -10.77194135587767
H          -9.59968622001050    8.49439607439059   -9.20243611242338
H          -9.56701945239226    7.52320863209840  -10.67423038046574
H          -6.25140757597235   11.11664707896272  -11.63629356522204
H          -5.10500705697797   15.55159267970195  -14.37657714558636
H          -0.71021231701717   13.89236267770420  -17.33979226485071
H          -2.22874989033919   17.87899069074781  -17.40603846503267
H          -4.00977930372055   17.24831814339053  -15.79621291855136
H          -1.78833028144995   12.17788530681396  -15.95928005121074
