86
 SCF done       -153.332551347078          0.000873032309
C          -7.49866504558796   -2.80528218729436   -0.27091757816814
C          -7.37944226852171   -3.79739536766838   -1.21228822378945
C          -8.14721446572917   -4.97926014201613   -1.21790642050566
N          -8.72828202689788   -5.96827649136050   -1.27187366170103
C          -6.44709034467380   -3.80002900563784   -2.26974889205771
N          -5.69873383682893   -3.88912438717536   -3.13672121091447
C          -8.38093830203283   -2.84115230198901    0.89055806193547
C          -8.11630379385273   -1.70508240347452    1.69405084123961
C          -8.76911181006300   -1.46425803297459    2.87690557359817
C          -9.73596144071792   -2.38778229632416    3.28513481209295
C         -10.00889204687650   -3.51137437695775    2.46972363517978
C          -9.34214074390609   -3.75762413359002    1.27570982725460
S         -11.27446591613361   -4.49575242720648    3.13623899218113
C         -11.43049220086421   -3.39203450554469    4.47378713833660
C         -10.56391891567655   -2.35100499563355    4.43787430372551
Br        -12.73541164922400   -3.66988182318570    5.79300014788052
C          -7.07808610722886   -0.87919743219281    1.05108176033041
O          -6.69725559744996    0.21413160519256    1.41668420849179
C          -6.68505447062806   -1.61077470598777   -0.17534783941306
C          -5.81801001005210   -1.13924101537628   -1.12997293921092
C          -4.81641823523364   -0.16455915900291   -0.95591693870076
S          -4.29244932485848    0.76034578564522   -2.33965609363629
C          -3.16981025347819    1.61658085606221   -1.37356128806266
C          -3.14994997084505    1.22341300764539   -0.06758467858693
C          -2.21056988423932    1.80467197567414    0.93535968258562
C          -4.08638785094896    0.18375753780644    0.19061439079826
C          -4.25183174771688   -0.56257130293808    1.40110779326643
C          -4.12981602498817   -0.12945977322754    2.67341505829892
C          -4.47863970135530   -0.90856400107346    3.82457465864761
C          -5.08795940842134   -2.11405302472693    3.80717348441169
C          -5.47962882958307   -2.82448633172159    4.98528782298766
C          -6.07809681858852   -4.02813518187369    4.99823518015890
C          -6.43949064960360   -4.78815500478286    3.75710541535682
C          -6.39876994633022   -4.70909453886532    6.30812492585194
N          -7.77921460825474   -5.11962769787387    6.39341497119030
C          -8.19817430300099   -6.37349959048693    6.11328776070124
C          -9.48440008869455   -6.70335489141272    5.82514614339713
C          -9.92995903963757   -8.01459350668762    5.57760209200288
C         -11.20584203666729   -8.31061088473562    5.17675819193067
C         -11.77061973569710   -9.57056789357745    4.86254740042271
C         -13.06020128252395   -9.51673782928776    4.42640707091827
C         -13.58792040319184   -8.20623718983899    4.36171074807848
S         -12.41059829787232   -7.05299144030579    4.92435360868164
C         -14.81683499610621   -7.77443309497280    3.90720416394583
C         -15.91358172452734   -8.51844281160646    3.42786453426897
C         -16.96778758031724   -7.75310028412111    3.03154991539839
C         -16.75970235412668   -6.35307299837570    3.15582873957479
S         -15.17821828074377   -6.05594000425248    3.84057382568863
C         -17.68274367991399   -5.38656577491412    2.85277633661647
C         -17.53369736767568   -3.98351569008112    2.87257535239257
S         -18.99482702663876   -3.01648804147665    3.02224918467465
C         -18.12407922064745   -1.53307016091723    2.95445558596778
C         -16.79146952218798   -1.76190978389721    2.81564817909730
C         -16.44134864178883   -3.13765885597034    2.76826063031646
S         -14.76521494070866   -3.46392566931972    2.41868423984799
C         -14.25018732334394   -1.79674179981541    2.32787845730229
S         -12.70979575192765   -1.37521683491343    1.98172367711302
S         -15.49478034680333   -0.60710240157702    2.63235954080326
H          -8.54525335152613   -0.58749954148669    3.46340995971300
H          -9.59237828865398   -4.62182720038763    0.68340951318040
H         -10.53561511196277   -1.56889243046051    5.17443772060826
H          -5.90553413392960   -1.53200236458156   -2.13633240340218
H          -2.56560030466739    2.37927829922580   -1.82621951776805
H          -1.39469384252082    2.31770449565119    0.43217408542066
H          -1.80222900103221    1.02185256007972    1.57094763183248
H          -2.72850437895048    2.52641370741674    1.56593928516713
H          -4.59240105072646   -1.57842905256860    1.23797239449857
H          -3.83697143293419    0.89090366165186    2.86590910265071
H          -4.28000932171537   -0.44887140029393    4.78488883391521
H          -5.31411886942226   -2.58599374731459    2.86353676541950
H          -5.25260091824501   -2.34329522047617    5.92863148218568
H          -6.92681517527507   -4.14323488525905    3.02857934892478
H          -7.11527692382518   -5.61013250676875    3.98426769842065
H          -5.54464321768117   -5.20568003752677    3.29421906896000
H          -6.17726355954475   -4.03459089089826    7.14139699833605
H          -5.77687438371681   -5.60405851891721    6.41682392524345
H          -8.46130969264259   -4.38163254588467    6.28208422101885
H          -7.43520044010091   -7.13933304245501    6.17093143781694
H         -10.22118799973428   -5.91365531555861    5.76144660657001
H          -9.22720974908365   -8.83030053272771    5.68379026234912
H         -11.20018159916046  -10.47802329382871    4.95906043099066
H         -13.63960923303865  -10.37420741822209    4.13382206251007
H         -15.89604594123509   -9.59320113037458    3.38838290120523
H         -17.88952731236772   -8.14253934684614    2.63685984156118
H         -18.67796296924631   -5.73572916575639    2.60974273314217
H         -18.63647360425401   -0.59608242369763    3.01557530840510
