104
 SCF done       -203.613744780748          0.000721937371
C          -3.77546193636558    0.15372661982976    3.00204367405099
C          -2.57830665972546   -0.48882948583538    2.79242155206013
C          -2.12707361361102   -1.58474414376545    3.55403144712339
N          -1.70275440453822   -2.47707082413544    4.13977122142016
C          -1.64427834787379   -0.16857053131095    1.78723202091523
N          -0.84240038582643    0.01170674168902    0.98379338136679
C          -4.78728926000069   -0.24963565919111    3.97720390620614
C          -5.90144498009516    0.61695137445640    3.84935539245100
C          -7.04908932454973    0.46302911508505    4.58815190380919
C          -7.09903943907743   -0.60192086077404    5.49504231302115
C          -5.97299700564243   -1.44418028350073    5.63626329668835
C          -4.81032412912857   -1.28539837616522    4.88883605675211
S          -6.25034350087096   -2.68885942279729    6.81547899603176
C          -7.86067616354866   -2.07952269497157    7.08173108697647
C          -8.17551628904758   -0.99690495764658    6.33426637020405
Br         -8.98346427985484   -2.94631719664416    8.30102992127735
C          -5.60226397976289    1.62462757486471    2.81741602002907
O          -6.30225081767225    2.59873741674387    2.54168213222025
C          -4.30226809402830    1.27326064101557    2.26070163832551
C          -3.61564495585099    1.98332051962211    1.28142952548658
C          -4.12888666488793    2.88510713745643    0.36311051830188
S          -3.03600836089269    4.06229053458165   -0.33954475932983
C          -4.32810998663494    4.96069768919081   -1.07223646988483
C          -5.55471189378203    4.24276238171484   -0.95746357970217
C          -5.43587307149283    3.07864316930029   -0.15237670273961
C          -6.53172579486672    2.22379159395424   -0.00517216787143
C          -7.74675553483060    2.57652749208339   -0.54552694624190
S          -9.19303903500989    1.57821788613168   -0.28588109671430
C          -7.87357514513506    3.72487884853147   -1.35822873431121
O          -9.03929214644334    4.05748393212256   -1.95098760551908
C          -6.76925117757966    4.51926542567008   -1.59315153667719
C          -4.11326694834798    6.25563952581117   -1.54889624429262
C          -5.14700594013911    7.16932698479852   -1.58920453654604
C          -5.15290325382387    8.50278851404578   -1.96418313630730
C          -6.29765200079975    9.26256092988098   -1.72879429192904
C          -6.56358401981834   10.62598796757207   -1.92548205918738
C          -7.79553745089764   11.03803650491439   -1.46375627893778
C          -8.54975852309040   10.01156890158871   -0.88600869100918
S          -7.68640076707485    8.50077488850312   -0.98453295618925
C          -9.75225615493203    9.99092659980353   -0.17529975365545
C         -10.59487378232834   11.00137538174078    0.30086091516032
C         -11.55865106130015   10.54316096179862    1.16850689123627
C         -11.50341385458453    9.16059095777600    1.43226969105645
S         -10.26968923895502    8.43995991230292    0.43419386963180
C         -12.32899261430748    8.46583495397012    2.30900817937279
C         -12.28363902990520    7.16348245915283    2.79467181663465
S         -13.75355390437926    6.59596101465758    3.55201151638080
C         -13.11091796093450    5.01878641309888    3.90280309080803
C         -11.79164572408072    4.90938049340768    3.39670084334427
C         -11.30155656339264    6.12903813908832    2.84369073926120
C          -9.94945523871548    6.20365422793873    2.50235521270266
C          -9.13852690577875    5.09150122870889    2.54416941930510
S          -7.45071840343059    5.18746207846974    2.02847521397030
C          -9.65846800441098    3.84186730926465    2.96797906661691
O          -8.94011065756012    2.71145261076872    2.98104071498658
C         -10.97096273600951    3.77703960072846    3.39600736829268
C         -13.88548200197009    4.18384898825953    4.71406016098751
C         -13.45387365515721    3.10036844445424    5.43806385363356
C         -14.28456379578042    2.43963631675815    6.34870479361344
C         -13.91694901599285    1.53950931569081    7.32078407028010
C         -12.63518067840498    1.15537994189834    7.85002315776522
C         -11.45732799809558    1.86993866825238    7.80687608557393
C         -10.22739442690638    1.38958708323098    8.29513782128380
N          -9.18021524690619    1.03687402208875    8.61300705811077
C         -11.31250755966257    3.19597379668078    7.35305930979531
N         -11.11213405915348    4.28818753045833    7.05659394112098
C         -12.83327359169543   -0.06438097969582    8.63360976591696
C         -14.22266566812963   -0.33503016372741    8.71377254620375
C         -14.95789999618460    0.68765161543459    7.94354834629779
O         -16.15804928060278    0.79703980054561    7.81362637714449
C         -14.73026603502696   -1.39357501783505    9.42500103293425
C         -13.82540609760492   -2.22871347303198   10.09033671664027
C         -12.44099200656118   -1.95000106784133   10.00793084274551
C         -11.92857840805423   -0.87568251814556    9.29011174361580
S         -11.50068312617952   -3.09324286273594   10.91503395856678
C         -12.96077804893139   -3.92025432273896   11.38555017080052
C         -14.09581168737389   -3.37172954390886   10.89064952364307
Br        -12.85108213467245   -5.43121790251374   12.48864497172728
H          -7.89225648862529    1.12523059019298    4.46742077681187
H          -3.98086897471845   -1.95818002787277    5.02772151984200
H          -9.12155127056912   -0.49065270525376    6.37662721798848
H          -2.53953641123911    1.86275617425604    1.25546989280362
H          -6.41980545444035    1.27812844964087    0.49901352628172
H          -8.77534640686577    1.02939677256457    0.84800026777668
H          -9.73813798789466    3.44355985558959   -1.68537426230077
H          -6.87772251992204    5.32570738097633   -2.29777398599005
H          -3.09940439278076    6.56402083592303   -1.76254202362437
H          -6.08195571174688    6.81254266996224   -1.17842400880891
H          -4.28818785891425    8.97351869525729   -2.40798593999550
H          -5.84378831123871   11.28484412097615   -2.37858074780903
H          -8.15103244830719   12.05175291442970   -1.51908882041033
H         -10.46491586663198   12.03428542753241    0.03188818171093
H         -12.27445908734981   11.17989963151745    1.65804882457090
H         -13.18668021912534    9.03769830928120    2.64818107325761
H          -9.51737949184150    7.14596779645013    2.21873937793727
H          -7.51629078858708    6.47169442220487    1.67320518472498
H          -7.97483132326984    2.85243564750810    2.80050961309438
H         -11.34288690545281    2.81643762594735    3.70707056017173
H         -14.90234677945166    4.51865147392042    4.88565830092975
H         -12.42843389658406    2.78384254308314    5.35907750356896
H         -15.35406477031545    2.60898997024766    6.27215444811353
H         -15.79354397435021   -1.56852964467315    9.47434507647556
H         -10.86580233045927   -0.70738188767472    9.26217065523969
H         -15.08159869317955   -3.75427493057363   11.08137216298275
