106
 SCF done       -188.313316039269          0.000642651129
C          -5.22933914706612    4.79902302458245   -6.74502905189598
C          -4.44965348925300    5.86627473105228   -7.10916708833261
C          -3.93401940199291    6.06050457922856   -8.40604594159919
N          -3.50246804980842    6.25559410981863   -9.45173428692087
C          -3.99623198253048    6.83568417695979   -6.19383740859508
N          -3.53709716406222    7.60850997585052   -5.47905956055398
C          -5.54012379091794    3.63499847861107   -7.56175645800531
C          -6.14937770367445    2.65993091747528   -6.73421313005595
C          -6.54828512823598    1.43542708729724   -7.21010235759519
C          -6.33584949419812    1.16104526759589   -8.56587774278114
C          -5.73108122964002    2.14416692588394   -9.38419930716174
C          -5.32575283610010    3.38325376181377   -8.90324751468250
S          -5.57344384669271    1.59969729878040  -11.02706419042049
C          -6.31054263544559    0.07951963476466  -10.59729500283400
C          -6.65733713395780   -0.01831405280160   -9.29209025746187
Br         -6.55325027046952   -1.23614209228057  -11.91180359188502
C          -6.28831153438958    3.19197925387768   -5.36103440487538
O          -6.81955851537743    2.62916783601764   -4.42441700597537
C          -5.76151225480208    4.56886528387896   -5.41875495639186
C          -6.01009597555471    5.54511971419577   -4.49111355985196
C          -6.37568045008187    5.36665613618229   -3.14168407488949
S          -7.43187755791896    6.55590261367129   -2.43419454881126
C          -7.36480085960229    5.77417609822850   -0.88712591051591
C          -6.52001230699218    4.67223534015454   -0.92423411883892
C          -5.96387707886868    4.43795965385950   -2.18976309689073
C          -4.93971961026436    3.37969817853365   -2.40684352872884
C          -4.28791802380338    3.00026497098601   -1.08334082957485
C          -5.37042233924046    2.59698995989483   -0.08409325689102
O          -4.72544207209633    2.05387298147220    1.05139933667751
C          -5.57297012253030    1.38187806449526    1.94663473587099
C          -6.22804275746461    3.82061284004418    0.27220880756398
C          -7.98115707458220    6.31395554554534    0.28833364993943
C          -8.94231371009296    7.25122792704235    0.35868858034486
C          -9.64165588279140    7.83710672602957   -0.82389179729899
C          -9.25717830871661    7.89936205413099    1.68515795680131
N          -8.62711315398849    9.20960579284100    1.67919257599743
C          -9.22213868670137   10.28323880589539    1.11473225299021
C          -8.55049776372001   11.24772796590446    0.42883125876678
C          -9.14246280251413   12.38657378601776   -0.14339031458703
C          -8.50878094757359   13.16267292620029   -1.08126721260415
C          -8.98881194750440   14.30842716654042   -1.75702924512090
C          -8.14990122755196   14.78696719503256   -2.72109127953078
C          -6.96589364294536   14.03369231305960   -2.87099112450404
S          -6.91740841692346   12.73593088510772   -1.70856481967179
C          -5.95534941003025   14.14757290671834   -3.81129158536167
C          -5.77884172874066   15.05245032757334   -4.87361687623443
C          -4.70047205731102   14.76235556461944   -5.66231239800973
C          -3.98273164103620   13.60566277826422   -5.27916464753840
S          -4.69969886565077   12.92896957794931   -3.84590289051656
C          -2.82496375755419   13.12698738560845   -5.87821119297255
C          -2.07785522999306   12.00421419672998   -5.54125614366032
C          -2.40742817593747   10.91121408797432   -4.75311868953735
C          -1.34042943340725   10.15872982552654   -4.05166743491999
O          -0.14382383351005   10.25614058002370   -4.21858044576638
C          -2.04633832985793    9.32237330559014   -3.04887787043177
C          -1.54826011840972    8.57682113880212   -2.02242830733196
C          -2.44763546818446    8.00159521889816   -1.09052322564913
C          -3.84570933721574    8.22699615931382   -1.24030432299671
C          -4.72340281391214    7.75639717752309   -0.24634558153343
C          -4.22216679383909    7.06898677537702    0.82181261246093
C          -2.86035653496889    6.78633765345624    0.96268912334360
C          -1.99154265245364    7.25472096571813    0.01348711831100
F          -5.07200744171864    6.65148158608079    1.79366528831085
C          -4.33655715181644    8.94325097628117   -2.35676401705979
C          -3.44631417332268    9.46820492501964   -3.24760573635428
C          -3.65529276648619   10.30302314283622   -4.42612803995070
C          -4.82029095320983   10.31674668013142   -5.16550141278530
C          -4.98250953898363   11.03720507735038   -6.36010079226975
N          -5.16453699202412   11.62103904174846   -7.33295380594840
C          -5.91098249394279    9.48653849664492   -4.86817973595367
N          -6.81478048538724    8.79929112686174   -4.68006337986491
H          -7.01039094399962    0.71002716385219   -6.55895469490431
H          -4.87490427244569    4.10567133213469   -9.56339503982399
H          -7.12192065226807   -0.88470488648830   -8.85785516982779
H          -6.00663013066799    6.57819140274007   -4.82654095025903
H          -4.19522130618414    3.72255703074254   -3.12966567829057
H          -5.43124946700930    2.50065681038928   -2.83725968614068
H          -3.72392696635525    3.84207806167607   -0.67727470125244
H          -3.60080465418598    2.16571465856701   -1.22023669821611
H          -6.01121505835007    1.82474073584692   -0.54327763630375
H          -4.92487409202328    0.88857817929931    2.66852053558693
H          -6.17959528326892    0.62827582950689    1.42924891690140
H          -6.24100867183150    2.06949825926734    2.47764841267546
H          -5.67867041215793    4.40649256924158    1.01502425040819
H          -7.16835313316299    3.50287824315170    0.73028325823394
H          -7.57365796594945    5.92987336159091    1.21480077040240
H          -9.86935715129842    7.06671015699486   -1.55725031058557
H          -9.01988289689589    8.58327774736856   -1.32212076531334
H         -10.56943900651590    8.31826532850988   -0.52287339269131
H          -8.84876488343510    7.32151739248655    2.51716721135103
H         -10.33166063741063    8.03059306448749    1.82941996851026
H          -7.62205586068001    9.16454902656443    1.55531632085760
H         -10.29484980722054   10.34161906865954    1.24498359871351
H          -7.49111804199129   11.10810794125213    0.25072771254990
H         -10.15947555568930   12.63967059019534    0.12414956623354
H          -9.94501274226965   14.73975612361332   -1.51710087215683
H          -8.35818897299450   15.64137141889587   -3.33975390357335
H          -6.44412381515080   15.88145825505805   -5.03674534214445
H          -4.41349016823169   15.33269981633366   -6.52760527507997
H          -2.41491555095264   13.76809859590906   -6.64830248021702
H          -1.04314729957407   12.00845618067101   -5.87069418954899
H          -0.48367095161026    8.44809987293861   -1.89579743652639
H          -5.78165221096697    7.94876835673393   -0.32979354252624
H          -2.52220924493022    6.22161963408074    1.81700402164796
H          -0.93289125550398    7.06621201401322    0.11085745043583
H          -5.40093442967276    9.08777214581776   -2.45951101762034
