91
 SCF done       -180.099200663515          0.000554732064
C          -4.34680633383831   -2.85498453174887   -2.39804149312089
C          -5.10428810068665   -3.94238471384757   -2.05926609057775
C          -4.66553545649123   -5.27726419796226   -2.19690292161796
N          -4.35601267269080   -6.37870136687255   -2.28193591503298
C          -6.44337329722699   -3.89217667847347   -1.61041005581716
N          -7.54349812502807   -3.93826093267609   -1.28870298610263
C          -3.03466955995657   -2.89319263251572   -3.02662384376800
C          -2.70332402836874   -1.58606528528879   -3.46020363397818
C          -1.52771094999738   -1.30072827092478   -4.11277966959960
C          -0.63307950433313   -2.35170295237751   -4.33748858183997
C          -0.96962635272159   -3.65346803548566   -3.89117432589638
C          -2.16110161828424   -3.94386801626440   -3.23926760218599
S           0.28026982251190   -4.80011032803497   -4.26251711776014
C           1.22499799646308   -3.53620915217320   -5.00452597048867
C           0.63636605700172   -2.31625696103715   -4.97560280241265
Br          2.89913039277577   -3.94447780116485   -5.74311790728296
C          -3.78596310795882   -0.64852615357287   -3.09907930545857
O          -3.84151865215932    0.52155691302824   -3.40394217317093
C          -4.74980882383761   -1.45773474560018   -2.29820703358723
C          -5.73704634743525   -1.01008798066153   -1.47381834019319
C          -6.20278648203016    0.31114132475174   -1.28060527746888
O          -5.81862415077893    1.36351131995290   -2.04344413050786
C          -7.11512877092229    0.77429659099409   -0.34411285257339
C          -7.95185208486351    0.38207515007519    0.80299222528096
O          -8.09111446737228   -0.67702431767558    1.35010745723794
N          -8.57726365784341    1.57151102206528    1.16616004589473
C          -8.23173792375357    2.68985327921125    0.40623651182861
O          -8.65909827295454    3.80046916553552    0.57179106616933
C          -7.27327265831863    2.15715610521687   -0.56938399241605
C          -6.44687643805684    2.48542753592098   -1.63450397769810
C          -6.19201220589851    3.72291437882203   -2.28510688474888
C          -5.27893759583275    3.83206002087903   -3.27673261529675
C          -5.00911690569441    5.06181933645933   -3.95035176241283
C          -4.09161850862874    5.24977823413934   -4.91565204274850
C          -3.18179127474897    4.19724242767621   -5.45593236886316
C          -3.91563666650418    6.61400440898367   -5.53053619814856
N          -4.27083003801989    6.58120941674192   -6.93183203273123
C          -3.75837150200665    7.42620769769108   -7.84616103713551
C          -4.23262668061540    7.58192855543724   -9.10596432226361
C          -3.67297078389393    8.47622598866048  -10.04611930873937
S          -2.28906009503958    9.48748043910729   -9.72507832113257
C          -2.36562319851167   10.30335313350918  -11.28004360866270
C          -3.40765138205743    9.74930755834692  -12.02339748143657
C          -4.12110516415928    8.74028216869182  -11.32712026713786
S          -5.39146871384648    8.12263295553191  -12.33238947094355
C          -4.84341891023011    9.22819286421820  -13.57229875696016
N          -3.84474425584858    9.97423428939773  -13.29076343840115
C          -1.42722608701375   11.29253114177073  -11.58941055176961
C          -1.43974667949404   12.20796113573797  -12.61007032538772
C          -0.16082519844728   12.83322412041524  -13.02616793263411
O           0.89909942658016   12.78508309824206  -12.43972085801543
C          -0.44698044326727   13.47601999085714  -14.32502960214037
C           0.40856927132674   14.10722651470685  -15.17973877596680
C          -0.09063521597505   14.62801139803553  -16.39548453691821
C          -1.47379227558980   14.47709072444973  -16.70271030459984
C          -1.96270361763219   14.99125564818077  -17.91927040897088
C          -1.10447756206271   15.62503656796110  -18.77390420605447
C           0.25762440455835   15.78614616871601  -18.48893882332984
C           0.74929622148471   15.29093517726673  -17.31298691041407
F          -1.57132455760874   16.11820548263178  -19.93755087519062
C          -2.33933599037313   13.82580941560540  -15.79195834640045
C          -1.83424856117224   13.33828211143764  -14.61826477047211
C          -2.47993758902369   12.67128645097995  -13.48889654763938
C          -3.82590545278758   12.71214663467641  -13.21747648034540
C          -4.38084230845026   12.35078547694500  -11.97677152729658
N          -4.86984281796351   12.10306053757395  -10.96687443640968
C          -4.79747728972139   13.19961352772715  -14.11079985159032
N          -5.63900101474171   13.56008345183660  -14.80488030274543
H          -1.30267816181193   -0.29690235623657   -4.43752820022196
H          -2.37203110671736   -4.94885101034682   -2.91418549219149
H           1.07971817976731   -1.42768928085809   -5.38632201470211
H          -6.24463033584545   -1.72301342233738   -0.83574744497105
H          -9.23055146127485    1.62339522272008    1.93516089974337
H          -6.76375186068191    4.56825160040534   -1.93129509662623
H          -4.72972869418900    2.94540303833578   -3.55953474452201
H          -5.60580481658990    5.90808429076090   -3.63161053886054
H          -3.56864784545701    3.19600582991984   -5.29653517315126
H          -2.21201842874669    4.26701268752559   -4.96088689081759
H          -3.02001420403637    4.35434201358310   -6.52092982534849
H          -2.86701530500024    6.91996455313050   -5.45824840109162
H          -4.52610986881607    7.35215417252784   -4.99213894067748
H          -5.14498034128677    6.12749109941646   -7.15670871182108
H          -2.88819435877794    7.98631682326931   -7.52961485895138
H          -5.10242685391231    7.03092119691785   -9.43678108860584
H          -5.34672621900852    9.25611205554059  -14.51917203421915
H          -0.52757752435526   11.30054458818659  -10.98132747960006
H           1.45484841174881   14.20979568392148  -14.93322012071784
H          -3.00698073533129   14.88875131808486  -18.17005795411573
H           0.88700660815006   16.29584423883709  -19.20114528145013
H           1.79560474092959   15.40248303863521  -17.07078537502512
H          -3.38110903081965   13.72158061524521  -16.05075824574157
