92
 SCF done       -169.473592411519          0.000589407055
C         -10.69546511734667    4.51778286525376    0.68121214218770
C         -11.23288082941374    3.73257398451979    1.66411529961870
C         -11.59236341806407    4.21210125872194    2.94062557815144
N         -11.88181578633921    4.54707437763986    3.99970949380940
C         -11.51405923907435    2.35609823991222    1.53564433508525
N         -11.79656320224326    1.24399914805905    1.50094318229001
C         -10.48062352475581    5.95595831070712    0.74548079937379
C         -10.05223160536388    6.41654024886976   -0.52406551137895
C          -9.75978046984719    7.73300209732782   -0.78006269558362
C          -9.86865248658779    8.64049207104984    0.27658341095645
C         -10.29335064843131    8.17415304006255    1.54358528607184
C         -10.61009112435078    6.84668598474082    1.79722204313853
S         -10.33081000957997    9.45871540527881    2.71148545319523
C          -9.77963754356792   10.58411033929831    1.50028186035716
C          -9.58634043168814   10.03264196604839    0.27959396258130
Br         -9.48062825439976   12.37322780206244    1.96382092014303
C          -9.99107936552793    5.28166324141664   -1.46420344299251
O          -9.91451819012375    5.35040307450823   -2.66661064691159
C         -10.20202299997763    4.06634053273729   -0.61602813548912
C          -9.87751212637929    2.80486102464161   -0.96269019994227
C          -9.05361988993479    2.50065248306597   -2.12618019813922
N          -9.23800023674213    1.32674356315412   -2.72459405661619
C          -8.48142936591412    1.07961842588052   -3.78275725554783
C          -7.56075981354482    1.98672648177276   -4.27420737883477
C          -7.40916823964869    3.18487582109723   -3.55634667249272
N          -8.13760269182180    3.39874803217352   -2.46059904568803
C          -6.53822081402182    4.27408663748791   -3.92648716522907
C          -5.73833949734577    4.29771649479198   -5.00560426925730
N          -5.01404777069171    5.39296637552182   -5.37733015174067
C          -4.17919459373114    5.45517302799397   -6.44419584727366
S          -3.81336633063478    4.02799456890233   -7.35774029593178
C          -2.79451303974103    4.97179207919367   -8.39950203428096
N          -2.14937702720067    4.30502544802353   -9.44070392726548
O          -1.43120838024571    4.95755672039062  -10.17784440505687
O          -2.35660655611994    3.10438168304689   -9.53373786489344
C          -2.74893289728461    6.29554459313816   -8.05960372280722
C          -3.53999964423608    6.60867728786399   -6.93378012984640
C          -3.69671334977122    7.91207536006833   -6.36344980537830
C          -3.20797607151406    9.05277593167668   -6.92139868075133
C          -3.31189509027337   10.36673495832855   -6.42065036081429
C          -3.84526425677892   10.83310648289204   -5.24399241446370
C          -3.84874884293047   12.19821220940834   -4.85495777733192
C          -4.37792352863211   12.44230668673128   -3.62490253461587
C          -4.83337148911765   11.28589525122322   -2.95814790188348
S          -4.58265157032697    9.87530348922109   -3.97078584851304
C          -5.36446030071346   11.18611231598737   -1.68786076853403
C          -5.54918672362907   12.21264598497420   -0.73445861626807
C          -6.01964375008789   11.77320536441382    0.46483193027342
C          -6.24965568628023   10.37537408378979    0.53594621408614
S          -5.85994650519182    9.64851322745992   -1.01874529919982
C          -6.69476530213675    9.69854897152061    1.64083131573988
C          -6.97516446501105    8.32245939106301    1.77921837932226
C          -7.45190502928013    7.72578981559614    2.95484885031448
C          -7.65348586223567    6.34706043257153    2.71916190462934
C          -8.13456969742085    5.33275394836922    3.52377409979074
C          -8.21768496257503    4.05052352315718    2.96837460220063
C          -8.68456843656826    2.84546700628840    3.48554254937495
C          -8.56363658042794    1.82987209893534    2.49051545374343
C          -8.00067617616430    2.40259785741521    1.35837098754727
C          -7.79168482306561    3.79204190534253    1.60416877680837
C          -7.33220625869847    4.79696210033666    0.79292327568543
C          -7.26471427531306    6.09147914169672    1.34402431690364
C          -6.86355064907718    7.29253874280104    0.78904058024949
C          -8.98739528328138    0.46367737956352    2.68206891418933
C          -9.06037448848538   -0.45393690063197    1.72147679759932
H          -9.44120128293600    8.05097406857676   -1.76017914942011
H         -10.93077281254109    6.54176340139587    2.77910730893163
H          -9.24833636233975   10.58025129472600   -0.58117272513237
H         -10.17664888794460    1.95728519094689   -0.36333514454355
H          -8.63835683272276    0.11830215002323   -4.25499502802930
H          -6.98973905653912    1.77262015007881   -5.16127282382240
H          -6.61856294912327    5.14350836366860   -3.28895108782586
H          -5.62635682733544    3.44416742277354   -5.65834638443212
H          -5.13706341729712    6.23924981526504   -4.83335238939462
H          -2.15323762917602    6.99803329091217   -8.61198416651098
H          -4.25370106341764    7.97826615472833   -5.44098942058935
H          -2.68401895218627    8.97370681213112   -7.86344152600129
H          -2.88942155613892   11.13851848931432   -7.05219182315354
H          -3.44606399199408   12.95796872446339   -5.50136182093118
H          -4.44707332847091   13.41809540516124   -3.17885256126702
H          -5.31764120091039   13.23932066810633   -0.95295516683190
H          -6.21149318034887   12.41057197162431    1.30997291047918
H          -6.85558074684416   10.30318525580306    2.52602838523245
H          -7.63590124972554    8.23327356599733    3.88409926456924
H          -8.44233381026963    5.51376748105289    4.54359083804232
H          -9.08925130814382    2.69468620119195    4.47051777338933
H          -7.72932656073486    1.89773392476851    0.45085538140332
H          -7.05310547317913    4.61281114255067   -0.23525698257648
H          -6.52157367149457    7.42338213863726   -0.21957712474112
H          -9.28848021559092    0.21153180068645    3.69057809043967
H          -8.79281736983262   -0.23954028799693    0.70072079894360
H          -9.40274764508836   -1.45280609148930    1.92508691852278
