107
 SCF done       -186.650626698288          0.000941492142
C          -7.80656287095654   -9.70146312122440   -7.63933203855087
C          -7.50469313039486   -9.94154258072896   -6.31653655692201
C          -6.75570380426587  -11.04441763328778   -5.86467465834116
N          -6.15259924724194  -11.91987773758037   -5.42745430390046
C          -7.89264292264616   -9.14282789252646   -5.22373173849916
N          -8.15832004079959   -8.55393860190438   -4.27229219895633
C          -7.39821046523244  -10.55274939039161   -8.75714477389817
C          -7.90187290672909   -9.99497573295551   -9.95645628351215
C          -7.68741209872919  -10.56326023233522  -11.18687974083917
C          -6.93729796913030  -11.74390206750793  -11.23873819630715
C          -6.43843385176574  -12.29392379154082  -10.03658456739671
C          -6.65605603287217  -11.71706998603919   -8.79015805641549
S          -5.53945827418614  -13.75389587598099  -10.32646201689822
C          -5.84194426746624  -13.60354635917311  -12.03702089743370
C          -6.57857258287743  -12.51986663416669  -12.37566456551759
Br         -5.16006524398094  -14.89586774293687  -13.21475746741641
C          -8.65356709064555   -8.76038575794785   -9.63916459180978
O          -9.21429518584159   -8.03991877387380  -10.44415883895863
C          -8.56549989867444   -8.60578382598898   -8.17746061828931
C          -9.12569920371811   -7.55923416456838   -7.46476903772203
C          -9.86233573606415   -6.52404987699474   -8.02162524759110
C         -10.39411219216554   -5.48423656621813   -7.27747880606091
C         -11.15153177865699   -4.40181209787484   -7.77196092856624
C         -11.53989820149725   -3.50793267225286   -6.81411687554410
C         -11.10430893000297   -3.84469636445914   -5.51826469453042
S         -10.19278844364255   -5.33803151504743   -5.54729755983901
C         -11.30628613703637   -3.13694979766319   -4.34258085824426
C         -11.98638882611475   -1.91246558485480   -4.17579458365695
C         -11.97935564156137   -1.45101014457550   -2.89300489061937
C         -11.29652536098440   -2.28457802092137   -1.97512994079493
S         -10.67629020569268   -3.69518128593177   -2.81479248331309
C         -11.11577250730234   -2.00198021042384   -0.64142761474383
C         -10.45043221575044   -2.76222036949708    0.32814628968351
S         -10.23372049596726   -2.03697645573379    1.92718403994689
C          -9.39434485709805   -3.43347579000555    2.47836120101295
C          -9.31464316178563   -4.41013633353603    1.46804015928039
C          -9.89621589900026   -4.03645834076840    0.26670349810786
S          -8.48308116756463   -5.84989910881913    1.99527415351929
C          -8.23076018879630   -5.12687363012512    3.56005431781887
C          -7.58527875213920   -5.55491902258929    4.71711282729995
C          -7.61364741300252   -4.59326960970451    5.71265341636487
S          -8.47014239753462   -3.14472975103500    5.21020289490358
C          -8.77392027960408   -3.83742493161994    3.65664049276601
C          -7.03202816459892   -4.65787962268253    6.99711518321244
S          -6.92205155855218   -3.23859600408428    8.02622112503636
C          -6.07117745321034   -4.06380894609223    9.30720751943749
C          -5.90633995845591   -5.39502675453557    8.94480338313738
C          -6.43665414681398   -5.71525503694973    7.66367172558878
N          -6.17718265255398   -7.04845106983281    7.49478224639454
C          -5.53000953519452   -7.45559592039801    8.63342150923403
N          -5.35004138247327   -6.51557393353161    9.50559109571108
C          -5.63191309921253   -3.36669907419364   10.45726961866762
C          -4.95360453511752   -3.97531808818399   11.45819988075436
C          -4.40681209607544   -3.34374656030610   12.62881286523814
C          -4.44479830245137   -1.95372858643263   12.83286590826029
C          -3.85073718539169   -1.41447476984140   13.94548773528027
C          -3.21835293506586   -2.23653811864057   14.89413931919783
C          -3.19269192817752   -3.61340989904953   14.71898201273913
C          -3.77977288245651   -4.15000125916627   13.59238524796243
C          -2.64102685513272   -1.39370434933773   15.91861877974743
C          -2.91420378968256   -0.05113549659631   15.60450257539850
C          -3.77398230774007    0.03947013609248   14.36366322569425
C          -3.14004857326826    0.92164827582251   13.27846943519872
C          -1.77370533049391    0.40753996926519   12.83922660800283
C          -5.21590557936091    0.49004521795430   14.69671109477541
C          -5.35297466049499    1.87718422973712   15.31024931395738
C          -2.38462364303090    0.95739454453080   16.37484452997910
C          -1.60852424454446    0.64884476095502   17.50027430761526
C          -1.37839512729826   -0.69317403840570   17.81715379751332
C          -1.87857913118013   -1.71313249387630   17.03262290829729
C          -1.06629303736157    1.74842733215036   18.28624305908678
C          -0.35412208812547    1.65838485523539   19.40407320239715
H          -8.08529571546882  -10.11276009732958  -12.08274800268703
H          -6.25265561765142  -12.17728975540753   -7.90392954137369
H          -6.85881011035385  -12.27518229141822  -13.38402264212340
H          -8.98415459901377   -7.53672532058908   -6.39110099584335
H         -10.03343733059410   -6.51675023521864   -9.08834839077764
H         -11.38458865921374   -4.31427046193789   -8.81814677460269
H         -12.12037179489095   -2.62474872602479   -7.01184716581422
H         -12.45291821347038   -1.40278193274285   -4.99904595303750
H         -12.44044575063125   -0.53230294275329   -2.57583794491505
H         -11.52142296184882   -1.05742676948699   -0.30071081826112
H          -9.92577208026852   -4.66134813786773   -0.60544091788397
H          -7.09492706714741   -6.50509699751043    4.81254218068961
H          -6.42836391688224   -7.62628016969438    6.71168917930613
H          -5.20777321599198   -8.46953476679477    8.77023243261697
H          -5.85785875074041   -2.31028197890682   10.48175199336593
H          -4.78781184891616   -5.04068534459020   11.36607105028271
H          -4.91921553779207   -1.31324233534352   12.10563558008231
H          -2.71282010400622   -4.25233611638361   15.44533230528513
H          -3.75785888128615   -5.21863647500554   13.43444668668223
H          -3.03047741488934    1.93712254045335   13.66130940954665
H          -3.80958840214578    0.95845584053935   12.41632621504055
H          -1.09002625310049    0.37005055768407   13.68463722102354
H          -1.35059869520782    1.06437497088998   12.08245661258262
H          -1.85481088409309   -0.59322233159253   12.42067872144464
H          -5.64323154584005   -0.24173176954786   15.38759389730970
H          -5.79809378448181    0.44891156119731   13.77307890716522
H          -4.85873623192097    1.92366097255321   16.27668157928503
H          -6.40707204592849    2.10201320128031   15.45952925824971
H          -4.93520905218753    2.64191371090004   14.66067249572971
H          -2.54348792443234    1.99462793247768   16.11716757102376
H          -0.78244758556243   -0.94049629876874   18.68174731753965
H          -1.67051009460577   -2.74403003836101   17.27841698335435
H          -1.28931778881044    2.73292053381549   17.89137276739897
H          -0.09824013840451    0.71813668065301   19.86121982706616
H          -0.00059994238001    2.53872887398941   19.91292208198507
