99
 SCF done       -183.432068535495          0.000999863990
C          -5.37896448395298   -1.45730592535751    3.46593029854451
C          -6.03250305447355   -2.63411565419926    3.73994352689675
C          -5.48710725121032   -3.67759388767914    4.51241525468158
N          -5.09287731149498   -4.55215281358845    5.14395435764565
C          -7.31508179226603   -2.95924549787678    3.25428959650399
N          -8.34479301642340   -3.29198236795555    2.86925879639318
C          -4.01562587809958   -1.12235954789582    3.86252975808949
C          -3.67206860592387    0.12499240756260    3.28670976460814
C          -2.44763870836647    0.71647073719217    3.47615599747635
C          -1.51334105850390    0.04182179512157    4.26985206779672
C          -1.86576033175313   -1.20255771427477    4.84251188241533
C          -3.10680985967270   -1.79970320087745    4.65269738240225
S          -0.56687269100017   -1.85917823968739    5.79225574087838
C           0.41869507783739   -0.47256218232766    5.40972543267463
C          -0.19105494566157    0.43649308270572    4.61289356058694
Br          2.15945084819277   -0.35442716004198    6.09926774605554
C          -4.81583043002646    0.64000804312510    2.50626854904546
O          -4.87766058245158    1.71654993477841    1.94844833653131
C          -5.88484942624828   -0.37187213894312    2.66081712492547
C          -7.19521488214357   -0.15027535296982    2.31647101634896
C          -7.64225648158639    0.83037785914330    1.40908758909653
S          -9.10887044864329    1.70860648695989    1.78738130540065
C          -8.90876584128117    2.74133299876400    0.39750116750760
C          -7.80780214689709    2.32410581179817   -0.36464122781868
C          -7.11358824638117    1.25296383079078    0.19130238841232
C          -5.97762985904738    0.64997938658661   -0.56120178805868
C          -5.18082705656516    1.80492343829008   -1.16537420469528
C          -6.03618198045296    2.53354018205388   -2.19575426161913
C          -7.43061599596571    2.93487609103900   -1.68635387340205
C          -8.52104123577376    2.46705285968950   -2.63715067829653
O          -8.36913647823174    1.71513592444100   -3.55466942951743
C          -9.71526943518865    3.86290676731408    0.17272800975536
C         -10.84586701188858    4.18700025659436    0.88625864599007
C         -11.58536097310370    5.36339877426733    0.77077983945752
C         -11.26982173701478    6.52815428864537    0.08490811629647
C         -12.05489416625018    7.69751679040167    0.06745718345324
C         -11.49120982105721    8.75601918234962   -0.59886630959411
C         -10.23321828257693    8.47063559642218   -1.14389391758696
S          -9.79243693245594    6.81689792464520   -0.80977363478603
C          -9.35817903060019    9.31223882370936   -1.83291836679988
C          -9.50342242148323   10.66968490668793   -2.13743630285857
C          -8.40989041902933   11.21099460123589   -2.77383456604769
C          -7.37213147951451   10.30131407165031   -3.00284095983798
S          -7.81446404122255    8.72331758949788   -2.39509148413957
C          -6.13204848545158   10.55120346072755   -3.59412037689177
C          -5.18283595650929    9.58496904193131   -3.81806780456894
C          -3.91448002455386    9.79988666225609   -4.35614889589468
C          -2.95529799639435    8.81749961444897   -4.63394657122099
C          -1.77961515824169    9.30929420200230   -5.14401572356914
C          -1.76459076677525   10.70502150991863   -5.27687689748329
S          -3.28909286567580   11.38168655645173   -4.75754931705878
C          -0.71892710612930   11.50679569651014   -5.72753898634861
C           0.53957395193986   11.08420755532213   -6.19428779605889
C           1.36739671803969   12.11084362219970   -6.55096664278093
C           0.80079778471133   13.39285776277625   -6.37490462403218
S          -0.82940867469491   13.24934467017953   -5.75327393894269
C           1.40356027629777   14.60388220297406   -6.62761028396640
C           0.78991437749936   15.84293172476696   -6.40454651676026
O          -0.48345580016587   15.90621315106715   -5.91696315650543
C           1.24657769587050   17.14305003131171   -6.58157635321205
C           2.38064866746213   17.95057601739939   -7.01192498970657
O           3.47002681649733   17.64493690205204   -7.42714709591144
N           1.93146158254817   19.26452625409532   -6.83774506498856
C           0.63805389974934   19.39318650970694   -6.34415307676560
O           0.07598236002325   20.43532852796505   -6.12668014719713
C           0.19464646134763   18.00321687479033   -6.17839006395001
C          -0.85409834952808   17.20689241556917   -5.77519902049722
C          -2.15319198599894   17.54616119137897   -5.27384474813083
C          -3.06394055516958   16.64067318688637   -4.91689819718563
H          -2.21590242228907    1.66889157844355    3.02564767980722
H          -3.33130532031760   -2.74600699256229    5.11587342830541
H           0.26999337087086    1.34883802466009    4.28098401408776
H          -7.96814575677821   -0.69816033470842    2.84273579715185
H          -6.38106324834791    0.02531936775165   -1.36517791730371
H          -5.35718118726782    0.02251898170470    0.07388978803215
H          -4.27846684126547    1.42790940344966   -1.64841839480331
H          -4.88344472196315    2.47792499842342   -0.35983841873904
H          -6.17732673959785    1.87453574306981   -3.05697794225787
H          -5.51171051139828    3.42468074705363   -2.54302450593879
H          -7.51823944548408    4.02364549138433   -1.60250149520154
H          -9.52199633299789    2.85554775414612   -2.37009824114289
H          -9.39804009150341    4.51306608969813   -0.62863217341794
H         -11.20422642291832    3.45927324475116    1.60391849141324
H         -12.51189148518243    5.40917395227091    1.32910140917146
H         -13.01224589278561    7.73674715346704    0.55653971066752
H         -11.95229931960881    9.72247984309790   -0.69401172157584
H         -10.38775990500250   11.22460059578824   -1.88108786563516
H          -8.33719377248828   12.24074540387167   -3.07618107064938
H          -5.92176807012056   11.57296188913043   -3.88287058405748
H          -5.42220243032595    8.56066937316775   -3.55868177451279
H          -3.14728667617904    7.77424000310726   -4.45582089314364
H          -0.93749348771114    8.69767999107363   -5.41175791524032
H           0.80704209159537   10.04505210502651   -6.25994295598310
H           2.36611219501413   11.98808453434170   -6.92972178789042
H           2.41147263912013   14.62609115778283   -7.01152608429103
H           2.50926856599240   20.06365895326295   -7.05551394285234
H          -2.34018513947513   18.60808261141032   -5.20480629595008
H          -2.86101262299696   15.58511939562302   -4.99067882824254
H          -4.02883797891226   16.93306483832395   -4.54294265223899
