118
 SCF done       -211.760989845435          0.000384499675
C          -1.70333574985773   -1.42861078688082    2.24344095120093
C          -0.73396183177256   -1.70936055995920    3.17589724918889
C           0.31053052384452   -2.63384575127578    2.97515406835871
N           1.18827967659528   -3.36761503944243    2.87193421749750
C          -0.64341557757330   -1.14192794888460    4.46304223630490
N          -0.50141574480453   -0.74906632258679    5.53364427627214
C          -1.83887641190601   -2.09379734787384    0.94833863662896
C          -2.99258963289252   -1.58649846748681    0.30424605023129
C          -3.40654105190027   -2.02254686986261   -0.92875755536385
C          -2.64404081454837   -3.01301685399128   -1.55929880322114
C          -1.48970920096799   -3.50895107012217   -0.91258344178075
C          -1.07049223468243   -3.06506171818031    0.33694904079192
S          -0.69114380998178   -4.72134819506191   -1.87033569846543
C          -1.90720271770079   -4.54859062101384   -3.10686051875032
C          -2.86094758430631   -3.63114974362401   -2.82149781608515
Br         -1.80709383542566   -5.59739464382865   -4.66032828866489
C          -3.60467838364066   -0.55135339852991    1.16066042624625
O          -4.55197793196420    0.16109199749353    0.86040680859537
C          -2.79934210275374   -0.49670136538852    2.37839019411785
C          -2.95160797078950    0.41480738453243    3.41149763333046
C          -4.03832622010473    1.21137477189840    3.76280037411076
C          -5.39277825323835    1.08288699292785    3.49987864450942
C          -6.36848338964568    1.99959952622247    3.98185881399746
C          -7.65308532758830    1.65204583580685    3.70717472901444
C          -7.75974058168048    0.42177523084328    3.01445928583542
S          -6.17088364456947   -0.24104069645916    2.69967802212842
C          -8.90374342460023   -0.20463889583786    2.56594655441364
C         -10.24480901788262    0.24814816436005    2.68694596344003
C         -11.15637649493980   -0.57290755385199    2.11284510865976
C         -10.60122682493590   -1.74299816947087    1.50983809395412
S          -8.84793370014742   -1.73106165279482    1.72377575841991
C         -11.30136844963535   -2.67641413159857    0.81679901673915
C         -10.80852386725502   -3.90057583508775    0.22893832665559
C         -11.45147157729369   -4.42343145254692   -0.91117449080779
O         -12.46416325880262   -3.72408134354875   -1.52536117584444
C         -12.08481756857625   -2.51258982976767   -2.16431136160885
C         -11.22616502922838   -2.74682983880950   -3.40697130162514
C         -10.84480936624337   -1.42812937187114   -4.06547943302675
C         -11.07243221979533   -5.67690920313031   -1.42571455090894
C         -10.03144639892388   -6.38022950776450   -0.80283233663228
C          -9.36507186248411   -5.85287911870785    0.29223076178778
C          -9.76233275883352   -4.61626591409095    0.80245055387584
O          -8.34663931639647   -6.45556305239794    0.94687829503742
C          -7.90034727035676   -7.72768896926341    0.51114798339178
C          -6.76031987799985   -8.16155372090055    1.42613561017542
C          -6.22312817426884   -9.53063612077890    1.03199559695570
C         -11.76410908742912   -6.18964290898655   -2.57866618837820
C         -11.51122472589795   -7.36144802706613   -3.21385127046938
C         -12.20525121586837   -7.80061915766801   -4.35791183210894
C         -11.95611060180530   -8.99764931513642   -4.97713617485375
C         -12.57338963331428   -9.51945902487365   -6.14123569105478
C         -12.11284900880014  -10.74394993651755   -6.51806813445945
C         -11.11135069769520  -11.26570698294792   -5.66655433228899
S         -10.76007467906961  -10.14364012597978   -4.38043039121028
C         -10.46567235325748  -12.48646048204309   -5.75585629770958
C         -10.61389588211715  -13.48308377958609   -6.74244917365673
C          -9.83976719070604  -14.58600818188589   -6.52783689357484
C          -9.04687970240949  -14.51722362050205   -5.36039663417475
S          -9.30898306772875  -12.99665934955447   -4.54455763284698
C          -8.20823188604445  -15.50222059447296   -4.87424696151034
C          -7.46588691905842  -15.36689387378549   -3.70718137550479
C          -6.67448603165838  -16.30744567758387   -3.08262494327293
C          -6.55404485623946  -17.72864317689539   -3.25002975653372
C          -7.50992065951825  -18.59609294148813   -3.72930243400447
C          -7.32609827754429  -19.98779200125912   -3.83605460784925
N          -7.22688663212248  -21.12465318575674   -3.96893958995508
C          -8.82795718376634  -18.22883753806311   -4.06189237279323
N          -9.92979802541199  -18.00766210159006   -4.30099749274677
C          -5.30673445985158  -18.14024016352674   -2.60383233677986
C          -4.78253963949124  -17.03537889933562   -1.88786380760303
C          -5.65144637530597  -15.86004108132063   -2.11342999236857
O          -5.53312161144454  -14.75145356246807   -1.63512438293566
C          -3.63547941663633  -17.11817316300829   -1.13861405184324
C          -2.96625172026802  -18.34707078483848   -1.10255717546983
C          -3.48949842835810  -19.43892220752375   -1.83242093223287
C          -4.65625202222035  -19.35769095911659   -2.58465400593898
S          -2.50085567478997  -20.85759773925699   -1.65774116792791
C          -1.41527940578012  -19.97646079398206   -0.61576645040120
C          -1.77119558487290  -18.68680463153863   -0.41003418690794
Br          0.08648594047105  -20.84343272505297    0.10072526418801
H          -4.29176479385038   -1.61681710807358   -1.39286647283491
H          -0.18137592233144   -3.47472348330376    0.78601780304691
H          -3.68339314532248   -3.39752746084842   -3.47280462355341
H          -2.07849041608118    0.56596035724449    4.03531434562928
H          -3.80235820408342    2.03183983559390    4.43181568288894
H          -6.07995446713741    2.89366635578624    4.50607158975840
H          -8.51302971900221    2.23794528062364    3.97724502940378
H         -10.48564132287370    1.17129940951123    3.18220395665550
H         -12.21664397349620   -0.39191121988238    2.09420293518700
H         -12.36167132233473   -2.49508446930317    0.68383720872174
H         -11.54372131868528   -1.86062128464430   -1.46548883752530
H         -13.02884093319540   -2.03349968703658   -2.43593839364095
H         -11.77771750080274   -3.36953726348964   -4.11380242789650
H         -10.32430195036825   -3.29075877933169   -3.11419101400693
H         -11.73405460188503   -0.87908910701081   -4.36658042143453
H         -10.23734351500286   -1.60973708153997   -4.94813414293146
H         -10.27464733408373   -0.80801777860762   -3.37726592411073
H          -9.75527762342392   -7.34548664089317   -1.19059719475628
H          -9.27117922456861   -4.25658544363945    1.69131138613065
H          -7.54730554819522   -7.66987309364169   -0.52774025352743
H          -8.72199395369161   -8.45516775551707    0.56422157171398
H          -7.12785470680405   -8.18263638931976    2.45308752529795
H          -5.96674761240597   -7.41479269625697    1.37179272727899
H          -7.00448029129376  -10.28420925689830    1.09660037930962
H          -5.41235678552728   -9.82053137680165    1.69434718551922
H          -5.84482016026048   -9.51751400912728    0.01249853498434
H         -12.55965704236940   -5.55909513656025   -2.95207356879232
H         -10.73590912633428   -8.02468070238094   -2.85460329330407
H         -12.97284802615112   -7.16380073732098   -4.77704933171580
H         -13.33769432962333   -8.97005617212337   -6.66200857870863
H         -12.46843550224319  -11.28806293670260   -7.37429298823962
H         -11.27811762010978  -13.36411922967141   -7.57946808732601
H          -9.82315304251157  -15.45302664714227   -7.16350993672898
H          -8.13676953829514  -16.40698364132430   -5.45951617018825
H          -7.43201678456338  -14.37987522338142   -3.25381324407523
H          -3.26412576130945  -16.26310901195235   -0.59584650192924
H          -5.01366733308134  -20.21735807430739   -3.12674408708380
H          -1.21598656901120  -18.00118246799256    0.20376853042142
