114
 SCF done       -184.919074632898          0.000858995663
C          -5.43749024742410    1.03148719126947    6.75652600478083
C          -5.20830099089261   -0.27833194276999    6.39430095930677
C          -4.32725592821916   -1.14251527044347    7.07157194902284
N          -3.62514289595869   -1.90290014244189    7.57192569265238
C          -5.80233630785553   -0.95921853905279    5.31438925744650
N          -6.22750625256007   -1.60449457208361    4.46230413453551
C          -4.80414022367504    1.70881286996460    7.88833300149044
C          -5.29047707079854    3.03678394117197    7.94969179130553
C          -4.88371850250562    3.93245866633206    8.90620591279833
C          -3.94845739549087    3.49726557247546    9.85245216969865
C          -3.46875704271648    2.16998388309680    9.78407309434513
C          -3.88159269016076    1.26287139496289    8.81435298349521
S          -2.32043848752085    1.83962886863534   11.04740480906728
C          -2.50038508151490    3.46934561179330   11.64069833327385
C          -3.37318513367881    4.22291647445486   10.93218760077766
Br         -1.51700610808542    4.02227888840174   13.14056471099802
C          -6.25811631602269    3.25037594954399    6.85020665943914
O          -6.86105082270469    4.28165750673652    6.61805109505252
C          -6.32050565590580    1.97196292116643    6.12360232927374
C          -7.10991847423010    1.73877323996396    5.01156926496225
C          -7.97076414754468    2.65777541608990    4.42878945788445
C          -8.73622565055121    2.35519151633340    3.31518041855535
C          -9.66108573606436    3.19600510879053    2.65934476480455
C         -10.28460475288661    2.61603970275673    1.59028047829663
C          -9.87502440825728    1.29037481624002    1.35071971853167
S          -8.67178961554840    0.79962849339038    2.52431492434064
C         -10.29740686574698    0.40729729026368    0.37180540273966
C         -11.27523553991402    0.59037626127311   -0.63226144020283
C         -11.45920097551141   -0.50278948317601   -1.42089999165156
C         -10.63623378111925   -1.61690204240540   -1.09556660689235
S          -9.60553048337441   -1.18660056589807    0.26501239807936
C         -10.69497744703716   -2.84170511529199   -1.69997886778725
C          -9.93509411315019   -4.01843033078594   -1.42361472943700
C          -8.74340232739643   -4.00617140299031   -0.67422243369248
C          -8.09559210920889   -5.18243710858881   -0.40640140888700
C          -8.60883617562539   -6.40934915368529   -0.86680351788999
C          -9.76834449329490   -6.43703419539717   -1.63574537891453
C         -10.40854837286597   -5.25163152152831   -1.91583339969119
C          -7.72371242489416   -7.46256162684220   -0.43719874960303
C          -6.65665634696159   -6.89275704592807    0.28508226077964
C          -6.83256775100898   -5.39524702128824    0.39884769208736
C          -5.64059263324357   -4.62947205580091   -0.19682745985309
C          -5.41371803776273   -4.95481388917581   -1.66897039296256
C          -7.13124218248902   -4.93714726725580    1.84657135056021
C          -6.03897851176269   -5.20660871988061    2.87229880809839
C          -5.63187235017460   -7.68792942560289    0.73672308809357
C          -5.66369986164959   -9.07540317525839    0.51448269027747
C          -6.75354051695492   -9.62528773968522   -0.17692559160363
C          -7.77234410016899   -8.83314918949154   -0.65881652740424
C          -4.56324981259795   -9.87242220971571    0.99938072085889
C          -4.41394429489270  -11.20415857766710    0.84260329806028
C          -3.31873609684051  -11.91853341172570    1.31387702335948
C          -2.37693263468627  -12.58886683212683    1.69740679918246
C          -1.34676011520949  -13.35136851358314    2.10297690517311
C          -0.38910316280141  -14.00803559017105    2.46815432660378
C           0.64281494583011  -14.89389910804190    2.81332089150080
C           1.76513024026627  -14.55264035540865    3.58631184346639
N           2.13325843174463  -13.35448046194803    4.14605729641281
C           1.28101630025619  -12.19343760623183    4.20807635880419
C           0.27884754908314  -12.29904060381156    5.35649059946455
C           3.32080823563835  -13.53363633040908    4.82941679095567
C           3.73385168097338  -14.88011864751198    4.68803304634316
C           2.74446716414167  -15.53074507416214    3.88003614684771
C           2.62476739201987  -16.83207259043170    3.41377723694471
C           1.51945324938431  -17.16232152859921    2.65112491734697
C           0.55105790462129  -16.21516007540526    2.36003195822226
C           4.89106941699462  -15.34702985468634    5.29657626628983
C           5.62570363107008  -14.46801878977656    6.06322520643505
C           5.22327485729050  -13.14401623199408    6.19996004838645
C           4.08707188937489  -12.63658121980434    5.58106432834677
C           3.79178307013795  -11.20185034627435    5.74016868781009
C           3.56324640465151  -10.63104604122707    6.91116192911628
H          -5.27340666161155    4.93822760362501    8.92579299776148
H          -3.48416502284191    0.26186729853951    8.80635266655568
H          -3.60372201527563    5.24793744517888   11.15879882623051
H          -7.06212057733281    0.75827843523881    4.55265218994123
H          -8.05912890982951    3.64556703163500    4.85652343937435
H          -9.84075418219880    4.20074483868534    2.99824614393960
H         -11.01907368795310    3.10727925729573    0.97717559680469
H         -11.81862594337091    1.51238405376633   -0.73530620537515
H         -12.16601938989174   -0.55314748340289   -2.23065500463577
H         -11.46044875944501   -2.94556574265765   -2.46068073828717
H          -8.32065512893068   -3.07278371831315   -0.34145030220645
H         -10.15955107440884   -7.37212000063332   -2.00789216620833
H         -11.31328998530955   -5.26007964688254   -2.50706292077528
H          -4.74011224666225   -4.88130947866635    0.36390139158101
H          -5.81935879945837   -3.55875745104569   -0.08172265984040
H          -5.22470112686455   -6.01806433085288   -1.80252284448582
H          -4.55543549045635   -4.40359143573698   -2.04649319043599
H          -6.28383910504772   -4.68518648129431   -2.26392252576380
H          -8.04970063537351   -5.43270513546677    2.17276789248906
H          -7.32768978795486   -3.86361816689313    1.81978732984046
H          -5.90583917058501   -6.27301997655221    3.03494513572176
H          -6.32212454999826   -4.74960788714669    3.81739092260046
H          -5.09195510570616   -4.77015427593279    2.56775462440206
H          -4.78439113644337   -7.26139252569528    1.25249698181121
H          -6.79680710502479  -10.68973100338585   -0.34899452593202
H          -8.59372997193538   -9.27164249805977   -1.20614760482105
H          -3.78902092754513   -9.33083216315087    1.52953008488874
H          -5.15354728448092  -11.79618712160553    0.31710361803962
H           0.75104276132948  -12.10359863873123    3.25668769373220
H           1.89985407272639  -11.30821248560063    4.34631458728726
H          -0.35019491207762  -13.17761096970365    5.23309378691656
H          -0.35652771333020  -11.41807638137572    5.37609807085666
H           0.80471764617734  -12.37338234805806    6.30597146570152
H           3.38075410992469  -17.56678469369138    3.64455495778246
H           1.40260997902943  -18.16812219962365    2.27618346883329
H          -0.30831064370576  -16.49015690944756    1.76570511136905
H           5.19674784649746  -16.37484985425731    5.17440489196297
H           6.52480517418724  -14.80076386091856    6.55983598405751
H           5.82247540265865  -12.46801626699014    6.79262986792723
H           3.83443580578515  -10.60141782141136    4.83795819545065
H           3.52872362942499  -11.20962846370696    7.81982619596814
H           3.38989771682889   -9.57272158802335    7.00826523336106
