121
 SCF done       -208.079740512450          0.000523005819
C          -5.25351927532529   -2.98301342285015   -0.23173547479439
C          -6.13138717541853   -3.79442574832207   -0.90389009266613
C          -6.13407972721322   -5.20159375295572   -0.81257012464476
N          -6.19004441115732   -6.34787457342357   -0.77372738366142
C          -7.12848355404614   -3.35401432052821   -1.79945174462156
N          -7.95045766169298   -3.08489410852979   -2.55557265201453
C          -4.16127785499897   -3.43986214624464    0.61698529592776
C          -3.39896006575509   -2.31601572244861    1.01512292606737
C          -2.29206071940467   -2.41818618281007    1.82190886646750
C          -1.91698713316388   -3.69380079199903    2.25581311449479
C          -2.68705292044238   -4.81189087401114    1.85613649168433
C          -3.80743704160019   -4.70769116817699    1.04160783102970
S          -2.05167598860931   -6.29168241320797    2.51000902127456
C          -0.77622170682335   -5.40024598508231    3.29710774883215
C          -0.82234428657659   -4.06387330057604    3.08443990662982
Br          0.49432752427603   -6.31839531212089    4.32722670422851
C          -3.98443417057700   -1.08642194856311    0.44041805195472
O          -3.57728565996372    0.04011835068018    0.62163774460805
C          -5.18967279995342   -1.53262330761807   -0.30494357807200
C          -6.18801550468716   -0.73676271075116   -0.78306000149117
C          -6.19300001682702    0.68141979280532   -0.98601580476530
C          -7.42844851867353    1.35421400094307   -0.89477369575252
C          -7.47379103968003    2.71199757224824   -1.06411163986509
C          -6.30271135074069    3.43248487407945   -1.37407960493486
C          -5.09034329620748    2.77060263266054   -1.52615011678360
C          -5.04115086791816    1.40796240022938   -1.32688204081266
C          -6.64081059238510    4.82929030731539   -1.48938879098550
C          -8.01897869405951    4.98178678544042   -1.24689291924097
C          -8.66070417689271    3.64225686663883   -0.96948080074947
C          -9.72570688350750    3.30157782983372   -2.02900778634306
C          -9.17690154767938    3.32922428920646   -3.45044113613466
C          -9.29403256756182    3.60030044640307    0.43347140719860
C          -8.29967733450132    3.92871505481514    1.54077233361904
C          -8.59788136602815    6.22417768204305   -1.27609577454009
C          -7.81327631020510    7.36075018979236   -1.55003234853272
C          -6.44066790997319    7.18516924945101   -1.80076419525119
C          -5.85413799776475    5.93981742453137   -1.77198247768163
C          -8.44300904777172    8.64984022301975   -1.54157287831290
C          -7.84414371324622    9.84273402184435   -1.79484063226030
C          -8.49875562248932   11.08668148727513   -1.72644009623059
C          -7.87636961866498   12.28343334802429   -1.96707370493746
C          -8.43367199492657   13.58439957887090   -1.87489738126111
C          -7.56106056203208   14.59162952682440   -2.14721408957144
C          -6.25979415888530   14.15015900684977   -2.48448723312716
S          -6.18510436990513   12.40033915462793   -2.43649077704804
C          -5.15627963513886   14.90443919697833   -2.81390545486903
C          -5.03970776962252   16.31631793200128   -2.86784325755560
C          -3.80712904025803   16.75587931735726   -3.22343898064267
C          -2.86247963114058   15.72081017377363   -3.49178018905385
S          -3.63193808066865   14.15459320824054   -3.23973703553565
C          -1.55264393822030   15.88819353787505   -3.81070231505062
C          -0.61374603536347   14.85687803910337   -4.14282093525879
C          -0.81106011125977   13.74299792131201   -4.93224866462785
C          -1.96650156380167   13.29098810528998   -5.74701710625483
N           0.37818754812908   13.06844050182193   -4.99155913721863
C           1.34350439455936   13.68645038989661   -4.27723615237529
C           2.70037657857258   13.10588504840631   -4.17810731315251
C           0.77335988196800   14.83703751078084   -3.72080114479316
C           1.32795435538970   15.77455702021475   -2.82159217390245
C           2.60591648618448   15.82505012137358   -2.34219980305660
C           2.97874152032377   16.79028638072525   -1.39556544267587
C           4.17560320506711   16.96993365676442   -0.74757581002838
C           5.37618167501080   16.18337682529021   -0.64531971853546
C           5.51593181425822   14.82281988410177   -0.80027395934087
C           6.73789419401729   14.13325222756077   -0.66329988362925
N           7.70057203279873   13.51017453750657   -0.59362227081098
C           4.47225588137367   13.90918678965753   -1.01711427661329
N           3.68123121808325   13.08524680291624   -1.15719246487432
C           6.43158137266619   17.06021589073547   -0.13327932131480
C           5.85225860284123   18.29401161543710    0.25168359745450
C           4.41073738545285   18.26678475259606   -0.06997883705549
O           3.59242749378016   19.13652591723570    0.14034988022657
C           6.58140785887585   19.31219714287912    0.81365036927301
C           7.95360089566492   19.10817107461935    0.99722128167470
C           8.52636168955361   17.87975087557933    0.59521953967708
C           7.78623628998022   16.84657133629245    0.03187638394180
S          10.23684886626875   17.84100619533947    0.90257263273254
C          10.15749613669641   19.45244459860218    1.56403458874656
C           8.91718569850164   19.99448441047463    1.55299989897988
Br         11.72137713578936   20.26762464822397    2.20463875127278
H          -1.73235966275696   -1.54128212653330    2.10747344981856
H          -4.36430792994517   -5.58873872838138    0.76998621173407
H          -0.11529754533841   -3.36595552753903    3.49435748218000
H          -7.13280327001199   -1.22002995327422   -1.00664125092084
H          -8.32059359603857    0.79103928017230   -0.66020472356050
H          -4.19742856602402    3.31410647608641   -1.79479234842437
H          -4.10978025979913    0.88542183786412   -1.46518869420313
H         -10.54484583685402    4.01869302149727   -1.94292374861161
H         -10.12681675747470    2.30881290546779   -1.81515427213445
H          -8.78980118738367    4.31620668200032   -3.69458728330569
H          -9.96406353757820    3.08299402332636   -4.15913023384822
H          -8.37233713675868    2.60645828154729   -3.56649701161791
H          -9.70794746207304    2.60365891171899    0.60062381159459
H         -10.12029416712312    4.31366722533779    0.46513740792378
H          -7.47479706577857    3.21957205747812    1.54130044010729
H          -8.79135930609936    3.88487309265561    2.50986656083643
H          -7.89148946906008    4.92811013368370    1.40684334106674
H          -9.65491929498888    6.34684392773586   -1.08587981314435
H          -5.82677858792873    8.04611058653069   -2.01348452457328
H          -4.79675389621374    5.82906018969357   -1.96075629609466
H          -9.49833510806346    8.65518659151212   -1.29541550758680
H          -6.79531026274269    9.87899463919489   -2.05724542348409
H          -9.54515434791970   11.10971121151420   -1.45190390958382
H          -9.46445247775222   13.72945206621379   -1.60254867082051
H          -7.81400804139569   15.63653945294087   -2.11908291373883
H          -5.86918884201471   16.95957839812348   -2.63396141485170
H          -3.53136246935398   17.79208517198279   -3.31229307873472
H          -1.17019901369624   16.90077145557945   -3.78007586185342
H          -2.62272730063297   14.12870519074339   -5.96583232486657
H          -2.54961238245927   12.53430532566470   -5.22068477510772
H          -1.61769090018514   12.86314252208632   -6.68618734214150
H           0.51111410265237   12.20887325233361   -5.50209149029149
H           2.75228725469309   12.17202629419383   -4.73445247049164
H           2.95340470264570   12.90180796117347   -3.13309378753602
H           3.44997717617494   13.78823481902232   -4.57806408526532
H           0.63234013776719   16.51312239580071   -2.44116796192036
H           3.34493472685272   15.12894002786470   -2.69590100358262
H           2.24642864566803   17.56181346693970   -1.17358924776827
H           6.10916614229760   20.23733002757777    1.10475819737592
H           8.27261372072377   15.93133057922346   -0.26128491756167
H           8.68824435373295   20.97784895834080    1.92125374357989
