77
 SCF done       -156.391709205861          0.000670464158
C         -10.95946766394183    2.43265801885060    1.25610742866283
C         -10.92358076082902    2.54263201555899    2.63224483460336
C         -11.86311617177531    3.26691330117236    3.39104921969317
N         -12.58831012464711    3.84223573837620    4.07150701877965
C          -9.97058032750446    1.94063944193513    3.47114123314957
N          -9.21886836058963    1.45899207238036    4.19959687149036
C         -11.98515097020998    3.00021265246868    0.39300275211833
C         -11.72461956996245    2.60843748302862   -0.94383618409660
C         -12.52487259900129    2.97888412056666   -1.99521299829616
C         -13.63970223688228    3.77869832210276   -1.71798942677169
C         -13.89137164435479    4.16856486608057   -0.38132040007331
C         -13.08197218015985    3.79236954902721    0.68333474690906
S         -15.31741858849859    5.15554567389304   -0.26245761722904
C         -15.55269004907210    5.02997778170529   -1.98589104139573
C         -14.61261853918138    4.28905734014487   -2.61957588860463
Br        -17.01625574299446    5.88858236031557   -2.78578041352740
C         -10.50207618387877    1.77753695945801   -0.98622337871067
O         -10.00357033035264    1.28341125349541   -1.97279551377270
C         -10.03130926629790    1.70573546083719    0.41715808680548
C          -8.89788813218035    1.09393312594899    0.88023086308098
C          -7.92662310239931    0.31678521611580    0.22985594533102
O          -7.93473704037078   -0.01011298234628   -1.08875304459133
C          -6.89297112043068   -0.76257122929833   -1.34419120102305
C          -6.14661142477831   -0.99521853354242   -0.19878465228320
N          -5.06909658911903   -1.90373494293500   -0.16761190112373
O          -4.56204252755513   -2.19971218719954   -1.23192512408943
O          -4.72456510780040   -2.37686832520422    0.90910666093631
C          -6.80565194002706   -0.27568557159296    0.85099944479853
N          -6.45919516437216   -0.14359247317616    2.15109447896651
C          -5.19603723079765   -0.39909076255825    2.64207446870920
C          -4.88821582202598   -0.73275651263510    3.90072599350092
C          -5.86282074409781   -0.89223366584377    5.02156855562358
C          -3.47327709181583   -1.19342599354636    4.15571005025058
N          -3.38189836248196   -2.56729438897047    3.69182974667576
C          -3.56586855346851   -3.65610398311962    4.44693046347644
C          -3.55487213430604   -3.71938227814552    5.81524095903431
C          -3.72203504502732   -4.90702722724370    6.53573068842656
S          -3.94292911542012   -6.44006092455610    5.71053193455192
C          -4.01552327177270   -7.27477028254932    7.22437013023129
C          -4.21000247592923   -8.53429449472103    7.69922895204291
C          -4.18841218954198   -8.51327521295926    9.14490574096196
C          -4.40863551166384   -9.82354598834594    9.37237493334074
S          -4.50618912611094  -10.27224583568465    7.60738626427555
C          -3.94443612689256   -7.12448483394065    9.64492256022180
C          -3.85679732607562   -6.38412033659017    8.33449030721879
C          -3.70490642472446   -5.06301356701866    7.94987121082959
C          -3.53071931635490   -3.98198970698967    8.89200489078299
S          -4.16980690776503   -2.36414201732336    8.67668613812461
C          -3.60131125961272   -1.79232666760273   10.19290798094096
C          -2.94667067837504   -2.79181173616399   10.86210660028802
C          -2.92539517882843   -4.02079378726479   10.12129161000789
O          -2.25161717054065   -4.97387679961940   10.80436972073033
C          -1.85777992507369   -4.37554884078026   11.96520497783596
N          -1.14834385865251   -5.17710803875862   12.88622677094508
O          -0.76473143355544   -4.63124409951857   13.90620719250857
O          -0.98012969300545   -6.34755433032570   12.60067874250442
C          -2.23905899930551   -3.06647300587667   12.06646687469148
H         -12.29948732817935    2.66130240027492   -3.00124913698500
H         -13.31650551342002    4.11704400022175    1.68318931439531
H         -14.60439147103850    4.10862782071710   -3.67906699831045
H          -8.68724096393222    1.21471626519023    1.93171919429249
H          -6.74333828162374   -1.12789761119966   -2.34210538517993
H          -7.17895170328820    0.12520648522760    2.80954847517451
H          -4.40867861751157   -0.30902273758732    1.90882531140304
H          -6.81590696824090   -0.41480205188228    4.81165494131081
H          -5.45731658656507   -0.46003178789728    5.93511333559953
H          -6.04338628143140   -1.95091108255925    5.21329695333883
H          -3.21799806414802   -1.14054834119338    5.21200187527159
H          -2.75482772242515   -0.59866556833215    3.58621227813893
H          -3.56199156111644   -2.67042974049377    2.69962865670101
H          -3.69790983331723   -4.57518760943292    3.89021225659328
H          -3.40509626966019   -2.82203786014323    6.39289857235400
H          -4.50901013182644  -10.47205150923914   10.21653240516985
H          -3.01670518672148   -7.05288261370447   10.21654415070382
H          -4.75511250978264   -6.74699532423750   10.27254939619480
H          -3.77620170763403   -0.77668142272937   10.48050192427535
H          -2.03563885732727   -2.41250290075088   12.88856721671569
