133
 SCF done       -213.461096431162          0.000967350533
C          -0.06185111918405    0.51860632498179   -2.79039073403700
C           0.41331927274454   -0.25501055458238   -1.76094608803717
C           1.36841010945734   -1.27955193724232   -1.91996820553632
N           2.14743496362051   -2.12050649454160   -1.98691344428068
C           0.00351935262843   -0.16305667709724   -0.41475097910528
N          -0.28273649971620   -0.16814521132227    0.69790206310538
C           0.29395155941753    0.36576218836171   -4.19500577647821
C          -0.49375229606327    1.25899062213790   -4.95919703453162
C          -0.39287867518730    1.35609132252564   -6.32530405029973
C           0.53080693018671    0.52785140380017   -6.97137353843810
C           1.31568859854833   -0.36139574933962   -6.19996988107191
C           1.21404718297266   -0.45806085607143   -4.81775781040756
S           2.39706369409207   -1.28771251298736   -7.19732341047111
C           1.78606128700651   -0.47932664372014   -8.61654909812942
C           0.82297291045474    0.43691856392327   -8.36005903366579
Br          2.47936770254041   -0.91981475746624  -10.30327135349416
C          -1.38618317659306    2.02695865336559   -4.06512788418043
O          -2.15803795176401    2.89309737079648   -4.41531266376577
C          -1.05853819986938    1.57020177066896   -2.69062584326391
C          -1.44316945398790    2.17156221187537   -1.52768571954412
C          -2.47709646514645    3.14100406092867   -1.32266506757675
C          -2.31562715319741    4.06333649010017   -0.26823884769009
C          -3.25971271150236    5.03521420661062   -0.06424245695085
C          -4.43402942479373    5.05167960168922   -0.84576209046100
C          -4.63425299022574    4.10577302590185   -1.84421260195169
C          -3.65378967195856    3.17001325963373   -2.08721405891398
C          -5.28576959375481    6.11434859043546   -0.37776826068684
C          -4.64892580120151    6.76358797367403    0.69524812630090
C          -3.28231893941667    6.15988142959148    0.94730869577698
C          -3.13212266809041    5.64778035191159    2.38752015050280
C          -4.22453445343202    4.65446220031687    2.76678837430945
C          -2.23824106005397    7.25272131770476    0.61704237843279
C          -0.78276662007015    6.80467739954818    0.60662660378173
C          -5.25178011044812    7.82347466745852    1.32187689044125
C          -6.51426073360320    8.27586516758938    0.89127939999867
C          -7.13778770426436    7.60311020331342   -0.17436733805991
C          -6.54029763739130    6.53529411888060   -0.80412654056510
C          -7.08125762116633    9.42676402185577    1.53672560198943
C          -8.26200383585619   10.01422691609070    1.21337196322465
C          -8.85411376332467   11.18647603098312    1.73154915238430
S         -10.49578769839689   11.48792942433452    1.23498860439694
C         -10.62962001107573   12.96844956678093    2.14123201898706
C          -9.38876135422078   13.25303543355582    2.76642415787763
C          -8.40318662144196   12.24096462072396    2.55091498530542
C          -7.11989662728906   12.40646832405002    3.10323790495674
C          -6.81089057128267   13.52106733985454    3.83903349588576
S          -5.24144897213798   13.80745153674774    4.57884493285708
C          -4.35264809866144   12.21774388464383    4.35694150576486
C          -3.05430836710710   12.27637297375954    5.13934801394144
C          -7.77495086027049   14.55176134934929    4.00651587996279
S          -7.25789971747983   15.97538366428116    4.90211208454878
C          -8.50289474528323   17.25450542996879    4.47153987307818
C          -7.91204526382436   18.62545704927845    4.74001743107189
C          -9.03310712739204   14.40907395213123    3.47845345117690
C         -11.86150470560557   13.62738789005364    2.11538779435127
C         -12.23975079294230   14.69361384086686    2.89965612417890
C         -13.43042085527212   15.40096528054974    2.80075863697389
C         -13.66558862544035   16.52745946214094    3.57407404108574
C         -14.78811932447216   17.37209686317171    3.60744402088537
C         -14.66972523100816   18.43842909231157    4.46343648617523
C         -13.44409494631029   18.48636661028051    5.14329055208961
S         -12.44347806734130   17.13080270479593    4.67843818089965
C         -12.95603356005002   19.41023103471969    6.05795822218218
C         -13.55465170051324   20.56910635421168    6.58189873083673
C         -12.75931943463384   21.24689618857297    7.46365362580953
C         -11.48999383971578   20.66409289882277    7.68650291959717
S         -11.35372496439642   19.20559162313140    6.71807906343633
C         -10.50226219045359   21.15988636101209    8.50509389056661
C          -9.22170091757224   20.63145987015559    8.75300445068962
C          -8.66381359489295   19.39700619253885    8.27786535222226
C          -7.36056089287772   19.29292369919309    8.72412119291764
C          -6.38577822802901   18.29583564680329    8.51086871434474
C          -5.15414958731169   18.48461317177988    9.08059740929707
C          -3.96621945843241   17.69659842546956    9.05465490817075
C          -2.98792566524409   18.33599036101452    9.80104415625952
C          -3.54119380091611   19.54677199342324   10.31301834644679
C          -4.86037161739986   19.65939142413714    9.88453704410302
C          -5.82630475898216   20.64966534043927   10.09943643125351
C          -7.06824296577791   20.47374843706447    9.51922872123015
C          -8.23396715299802   21.26823541654744    9.52249376756483
C          -1.64930092305781   17.83769631033432   10.00609698238014
C          -0.70715973857386   18.42324406756115   10.74032215128355
H          -1.00840563010774    2.04847578649096   -6.87807345397532
H           1.83906120286317   -1.14718060029893   -4.27500269760523
H           0.33811863504792    1.02639044595365   -9.11673979684526
H          -0.87090734676659    1.93162202291466   -0.63835105240711
H          -1.43318940976981    3.99716917075871    0.35089679779691
H          -5.54730129328304    4.10155262716678   -2.41974263295786
H          -3.80976151148385    2.42111306790673   -2.84524780824606
H          -3.16334086447547    6.50078945015943    3.06910253984611
H          -2.16031650783084    5.16517954432912    2.49760903867432
H          -5.20788803087421    5.11230095495756    2.68326625764269
H          -4.08628169921386    4.31880053458114    3.79195210067854
H          -4.19493309173644    3.78496019889128    2.11391206506880
H          -2.35861982281400    8.05544679124494    1.34841437537442
H          -2.48371807459425    7.66378332040395   -0.36587810147924
H          -0.49633894134773    6.35833448088533    1.55525634368842
H          -0.14266920431233    7.66751973501152    0.43409632139967
H          -0.60318730379064    6.08926752775206   -0.19104487665410
H          -4.76489555066860    8.32779102622667    2.14542358039317
H          -8.10781709169448    7.92930204603512   -0.51493609763909
H          -7.03644528726551    6.03663909945754   -1.62329630141795
H          -6.48310399605797    9.83145362694313    2.33909256556246
H          -8.87255517242476    9.53650043029049    0.45732850762165
H          -6.36964270096142   11.66285775767853    2.91220161901701
H          -4.15883125703350   12.08017534627033    3.29252147579238
H          -4.99780607067639   11.42284359909620    4.73182680870020
H          -2.42947721849155   13.08956118113666    4.77826061919931
H          -2.51051539338468   11.34081162255070    5.02737370962895
H          -3.25589050732502   12.43998039906620    6.19508630780647
H          -9.39463701649012   17.08688586936088    5.07658561102395
H          -8.73995719459850   17.13926631168395    3.41466331466974
H          -7.58945370789890   18.71342643995401    5.77396223894519
H          -8.66179193727302   19.38912950006242    4.54564981311664
H          -7.05286424325579   18.80142280652175    4.09715666429887
H          -9.74357132654887   15.20532577131591    3.59413971826973
H         -12.58692268029098   13.23821007566034    1.41061654235611
H         -11.57205204725331   15.02637316418932    3.67899510352281
H         -14.18570358399496   15.10096801711700    2.08783915878579
H         -15.65580174716754   17.17855066849761    3.00129441863997
H         -15.43234993163003   19.18267042065462    4.61034709728520
H         -14.54634098132508   20.87520359918672    6.30002129395067
H         -13.04999759109436   22.15501557701446    7.96269839585513
H         -10.73522875502099   22.09167440192956    9.00735651073120
H          -9.17942105602106   18.66170303078402    7.69071043294870
H          -6.60868322409266   17.42452005913087    7.91045491982093
H          -3.85946736775095   16.76180320251537    8.53518806040430
H          -3.02092652005919   20.25877098707129   10.92713451583492
H          -5.60196033526146   21.52150576733001   10.69795240838323
H          -8.34540354577812   22.21399033361318   10.02069071558038
H          -1.43141254819820   16.90280646742466    9.50443753027771
H          -0.87691232666520   19.35091491374667   11.25937648886815
H           0.27230515220509   17.99051023815392   10.84881498631616
