96
 SCF done       -169.740121559591          0.000536395425
C          -1.23800358852330    3.33332278269857   -3.07953222394353
C          -0.33323696423750    3.99053271081751   -2.28376314758421
C           1.06219126039684    3.94989993997986   -2.47521678014021
N           2.20474307658362    3.95654965880423   -2.59062750096340
C          -0.67033438752166    4.75209117293462   -1.14609372623582
N          -0.86126173229536    5.36071851849998   -0.19068773879115
C          -0.91113094406376    2.42170850776000   -4.16835786440630
C          -2.10869653139395    1.82342582016689   -4.62990948547781
C          -2.13010304473313    0.90466268153834   -5.64971758587509
C          -0.91039390132059    0.55522158269819   -6.24038988564842
C           0.27985745285033    1.16116090524328   -5.77472378205714
C           0.30142667828486    2.09345856893363   -4.74461641287031
S           1.67066276774268    0.59458219522912   -6.64990849311273
C           0.64773834323771   -0.43697227683515   -7.61367286773793
C          -0.66726424522103   -0.36194673993329   -7.29931752071770
Br          1.41152985418017   -1.51408392843331   -8.94626722949852
C          -3.25265956185156    2.36866230579519   -3.87028047200367
O          -4.42863253178433    2.14426124305430   -4.08477399852091
C          -2.67466103004660    3.32468759542090   -2.91070632242085
C          -3.38726269724875    4.19451512169540   -2.12825500829830
C          -4.73928436901672    4.11982360457000   -1.73978257897126
S          -5.53815138088981    5.64865537202464   -1.44520404917318
C          -7.00827003809476    4.85116655592812   -0.98793117547156
C          -6.85641236662895    3.47136275593502   -1.01624033988906
C          -5.58033304267686    3.05245616211499   -1.42704419326256
C          -5.17618382747628    1.61235465414503   -1.42336069341014
C          -3.76820731029519    1.40575617318544   -0.94724322736974
C          -2.94639980042013    0.50247320490774   -1.44959699693130
C          -6.14586177624451    0.79189923402739   -0.56022682145295
C          -7.58012773044607    1.08336303063937   -0.97946446518684
C          -7.94234231400254    2.51984407907553   -0.61505782152182
C          -8.18161529526929    5.58630693961325   -0.65099188717528
C          -8.23144621534575    6.93577092884719   -0.65127340669757
C          -9.34793923426219    7.79209551511326   -0.37166666496433
C         -10.66536100231850    7.52849552913513   -0.42846326935049
C         -11.27640951937421    6.23432827167741   -0.85859583200934
C         -11.65374287562568    8.63895407443274   -0.16051065492098
N         -12.26466399129889    9.06184041353217   -1.40186948860595
C         -13.48241169640219    8.64605891660543   -1.80531748959806
C         -13.90737749009375    8.66904771414245   -3.09895066924683
C         -15.19855935415495    8.34529913029693   -3.56165101415714
C         -16.35228182311529    8.10983862101303   -2.85786796961865
C         -17.60677378201847    7.79318012198679   -3.43826325516222
C         -18.63341323854526    7.67102951267952   -2.55341170119785
C         -18.25956052984282    7.88625636193446   -1.20777512518780
S         -16.54564454182247    8.21954034942988   -1.10872720543645
C         -19.06123984830608    7.87552438425511   -0.08519719511706
C         -20.44542473585271    7.60869071458658   -0.00366717436473
C         -20.95472610086293    7.70952150012477    1.25390187720280
C         -20.00337185520155    8.06832515578984    2.24390254374639
S         -18.42211827424544    8.25121366971599    1.50849474942533
C         -20.26298867774242    8.26640587970537    3.57345303729821
C         -19.35171689290854    8.65502553580709    4.57063035916120
S         -17.63883291664788    8.95287047739490    4.32259383747274
C         -17.34271246782284    9.37274712518598    5.96620000001320
C         -18.50230835747172    9.29370829144137    6.69974750106055
C         -19.62009791831928    8.88882880311922    5.90858411283062
O         -20.74394549940352    8.82262188382527    6.65558292206459
C         -20.35711489590257    9.18019528981552    7.90972928795614
N         -21.34254893449005    9.20052612154676    8.92065146419021
O         -20.97214140023306    9.53232726880141   10.03314495541386
O         -22.47723666345037    8.89293596250942    8.62117404021538
C         -19.02310659745709    9.47686021918644    8.00951679713829
H          -3.05774522955956    0.46651790575877   -5.98360955465513
H           1.23275073420166    2.53364965155490   -4.42957626982796
H          -1.43534593309087   -0.92778967479939   -7.79420470138682
H          -2.87663154863174    5.09011230003986   -1.79160885629929
H          -5.25253593294872    1.24735673713253   -2.45773860845341
H          -3.45623715856399    2.02872473135374   -0.11821858396402
H          -3.23289772338667   -0.12888619390389   -2.27522649410254
H          -1.95316222451800    0.35453172551828   -1.06035260436601
H          -6.00838720414943    1.04813811265375    0.49300810373268
H          -5.91593434472184   -0.26731788384153   -0.68226294483815
H          -7.67422473356449    0.94207024306919   -2.05796288590875
H          -8.26921297441360    0.39602073018678   -0.48600683488494
H          -8.09276101523436    2.59627034488074    0.46729066089157
H          -8.88156506937262    2.80168510202175   -1.09712852519516
H          -9.03585764760151    4.99730929347933   -0.35934043260089
H          -7.30809139189817    7.46072599836391   -0.87014206843655
H          -9.06165887156208    8.80491766289005   -0.11173934419974
H         -10.66864703241847    5.74880965582704   -1.61951335185952
H         -12.27435444442924    6.40199738822572   -1.26159606387138
H         -11.37180641236830    5.55708827877107   -0.00929438739682
H         -11.15231625677781    9.49706379723796    0.29724970925284
H         -12.44631465178029    8.29672933792357    0.50933720388278
H         -11.61520246369285    9.34097549322449   -2.12531878392825
H         -14.13225583748905    8.31239075375123   -1.01032618467941
H         -13.18918565766939    8.95098809846888   -3.85881012376730
H         -15.30837805003360    8.29339585986987   -4.63810218019695
H         -17.70995214387917    7.67437684040283   -4.50296277969294
H         -19.64825395916148    7.44928621315806   -2.83020376163826
H         -21.02545914114837    7.35238026790110   -0.87214271488962
H         -21.98654685920583    7.54626327906861    1.50979990653510
H         -21.28097688207388    8.12660062721395    3.91218399326889
H         -16.35730186107211    9.64635256468696    6.27894408227774
H         -18.51190176987713    9.77999088413414    8.89938830933225
