121
 SCF done       -214.649445953212          0.000915782795
C         -17.91790373798451   -1.72412808026389    8.39972425590082
C         -16.92710069191537   -2.65166290148221    8.63095794642748
C         -16.69629547526089   -3.26778182835273    9.87611954208977
N         -16.45525344989187   -3.80879864501675   10.86092493106066
C         -15.99845127188869   -3.12077667171522    7.68131055675479
N         -15.20100370480132   -3.55703047907296    6.97764091612533
C         -18.86373140376487   -1.24108064360478    9.40528655083791
C         -19.71221315219868   -0.28059436213188    8.80405256811598
C         -20.71198134172373    0.36024491180832    9.49210352402525
C         -20.88747403400351    0.03515521567436   10.84203574440132
C         -20.03748721983888   -0.92675924807449   11.43349059065374
C         -19.02281246153211   -1.57313252983058   10.73666681857189
S         -20.43017204809366   -1.18364874545851   13.10751703733656
C         -21.71442925317507   -0.01033577099866   12.98907243571205
C         -21.84376089048115    0.54671962474612   11.76233530027492
Br        -22.76444970915634    0.36792923882095   14.49762839235836
C         -19.33771321761933   -0.12359932979878    7.38169585379098
O         -19.86885692159696    0.62163305349393    6.57984887749909
C         -18.21457833763564   -1.05238732910204    7.16164058292324
C         -17.58101747078731   -1.24241941630716    5.94870033460473
C         -17.89523031776224   -0.57776667806204    4.76889266977959
C         -17.24902374017444   -0.82670045945941    3.57283904363492
C         -17.50456074996878   -0.20207043944689    2.33028387609962
C         -16.72393818604417   -0.65327649724424    1.30720557859923
C         -15.81254093436678   -1.66001572187358    1.69223918927317
S         -15.97419431995419   -2.01019627768466    3.40091697350105
C         -14.90017622411556   -2.33473438278646    0.90356919687775
C         -14.67072664670262   -2.17917114267039   -0.48700890908921
C         -13.70933338195306   -2.99940866289607   -0.98091207012092
C         -13.11582443446598   -3.85910544408736   -0.01162628791057
S         -13.84273719143335   -3.55166869543921    1.56784741126997
C         -12.19531656653691   -4.82949215456110   -0.25739141117319
C         -11.57443037838071   -5.65375262902152    0.74664031445646
C         -11.18682252682654   -5.11073303153858    1.94350416733347
S         -10.37169219869812   -6.18673923415122    2.99141806485204
C         -10.58412114256342   -7.46875519375987    1.83824153441256
C         -11.23943701065035   -7.05997817438094    0.66677521523674
C         -11.53037397033243   -8.02669010274479   -0.32478404670908
C         -12.22715913090762   -7.58578254891445   -1.58459709512160
C         -11.22062405898792   -7.12076154965668   -2.64109562659604
C         -11.16389410753090   -9.35457464956701   -0.14256994775697
C         -11.45463586062046  -10.38364950564067   -1.20354313971433
C         -12.83558104169508  -11.01834942274377   -1.01036031840324
C         -10.51349950996656   -9.75950466369882    1.04782161839802
C         -10.02640563202968  -11.05550625614935    1.46781871413131
C          -9.36218267509084  -10.98266755573223    2.65924519874651
S          -9.32145151429709   -9.42134769237863    3.36771655954269
C         -10.20130132137644   -8.78773971603805    2.01178429848223
C         -10.23306655598333  -12.33065061499075    0.82176324752582
C          -9.34658987223566  -13.34520678665715    0.82730267209431
C          -9.60410715476901  -14.60489106217953    0.21423760675297
S         -11.10563031366470  -14.91733042132760   -0.60016156632742
C         -10.58837893398012  -16.52185973744973   -1.04181274809995
C          -9.30175656671515  -16.77497450075904   -0.57166568561106
C          -8.75557780067850  -15.70186833395824    0.14138124635861
C          -7.38432927041725  -15.75117644095469    0.73989319763474
C          -6.87585246557814  -17.18809162483347    0.81458469925642
C          -7.06310455782815  -17.89366040101003   -0.52840233538245
N          -6.47697720777200  -19.22336598407243   -0.46540323262752
C          -8.55979833067572  -18.04744070030254   -0.81595176767727
C         -11.40020439623911  -17.37416722146914   -1.81108704407191
C         -12.63128972595372  -17.04674687199834   -2.30048153290872
C         -13.45948347788502  -17.88445103433357   -3.07074128398100
C         -13.18157149802129  -19.03067837267184   -3.77081561774680
C         -11.96489886635011  -19.65707267951243   -4.22480760559284
C         -10.77273197857214  -19.04166917747233   -4.52651202102723
C          -9.62641749722497  -19.71478723246639   -4.98808777866679
N          -8.64345807168146  -20.20911553977993   -5.31898956870067
C         -10.55917915012014  -17.65269261397700   -4.45262010071816
N         -10.32978286541455  -16.52739026898615   -4.43663725160161
C         -12.28405833982390  -21.04379379859602   -4.56036881193789
C         -13.69134011420737  -21.20373659065401   -4.53399812234716
C         -14.31225217018817  -19.93076679774829   -4.11187225370975
O         -15.49386872804614  -19.68037369395337   -4.02284359533319
C         -14.30563618012868  -22.39011682545523   -4.84996536132295
C         -13.49156847168875  -23.47464710679593   -5.19595319014387
C         -12.08682342503192  -23.30889063451813   -5.20428722317041
C         -11.46533312018567  -22.10475383218798   -4.89446507526912
S         -11.27215500597595  -24.77751515863948   -5.65053300394677
C         -12.80959198044070  -25.58313216874880   -5.81956939297138
C         -13.87841994235887  -24.79491606166559   -5.55649973767658
Br        -12.85668233312560  -27.38635092980800   -6.33375007709384
H         -21.34150701212164    1.08845730546037    9.00512717608331
H         -18.40277410926791   -2.29936205648030   11.23472201809031
H         -22.58213383135513    1.28701049286031   11.51361004387395
H         -16.77929901689873   -1.96931901194259    5.89811437459746
H         -18.68147718441074    0.16306991069292    4.77629709945621
H         -18.25782535163514    0.55938548280995    2.23370246802160
H         -16.78251778096606   -0.29141974846126    0.29634150883563
H         -15.22893713364125   -1.47469659438745   -1.07677348522160
H         -13.40235011857450   -3.02865564793940   -2.01163611678180
H         -11.88180093369290   -4.95028820660361   -1.28325180451614
H         -11.28171573985051   -4.08379088733393    2.23761622691453
H         -12.91578643826551   -6.77552094831633   -1.33947780762733
H         -12.82676700160754   -8.39407298007514   -1.99771378991385
H         -10.54778687585038   -6.36725023231946   -2.23718004588082
H         -11.73896316957099   -6.70578023347960   -3.50306890564613
H         -10.60900702043435   -7.95422262615082   -2.97875831612024
H         -10.68451151346193  -11.15452075092875   -1.16863738704650
H         -11.40365712319797   -9.93595231668340   -2.19467517918369
H         -12.96223183427123  -11.37823467686722    0.00815143248122
H         -12.96433463109366  -11.85319144790843   -1.69543005461859
H         -13.62453132870818  -10.29356836198346   -1.19768978743676
H          -8.93262719185412  -11.80364553916130    3.19958784809996
H         -11.18734847886087  -12.50060937089085    0.34745394058727
H          -8.37134071920678  -13.21873385810913    1.27565502355074
H          -7.39430809523480  -15.30981140450175    1.73883229429250
H          -6.70658882256005  -15.15255670015461    0.12183395938298
H          -7.42223062403524  -17.74446603660891    1.57750547681718
H          -5.81977539531132  -17.19001114874064    1.08978883795807
H          -6.61542174576251  -17.26313792900115   -1.32055561182339
H          -6.59797032510314  -19.70625900339544   -1.34942472356768
H          -5.48177016313523  -19.16611157678859   -0.27922419653888
H          -8.94805568859525  -18.83622663474192   -0.16345451717146
H          -8.70087426811044  -18.37195500115094   -1.84986658203154
H         -11.01104609122586  -18.36981149572294   -1.97600803917349
H         -13.04363887568225  -16.08419058056717   -2.02549839486012
H         -14.51621683788317  -17.63152802758195   -3.06775131146699
H         -15.38029715325047  -22.48096571966258   -4.83065171050585
H         -10.39073763122328  -22.02802256996251   -4.91156473556683
H         -14.89843980867295  -25.12816022848830   -5.61417044151901
