79
 SCF done       -165.441082482811          0.000692110900
C          -8.40619914674916    0.43730844020449   -7.65356117492561
C          -8.41240728041577    1.68784349295844   -8.21829549146696
C          -7.91803592443220    1.97728749876686   -9.50628137873218
N          -7.53321016716332    2.27395291104027  -10.54660286173677
C          -8.92142631353591    2.84650201401213   -7.59904919988941
N          -9.32782469002831    3.82648536368493   -7.15823480428600
C          -7.90222804704933   -0.78232514130444   -8.28152099782492
C          -8.07625564789373   -1.86838211153715   -7.38435516147414
C          -7.70419735793736   -3.15325216391256   -7.69586394406537
C          -7.13218765465414   -3.38111852956455   -8.95234819997938
C          -6.96182470464272   -2.29267894351389   -9.84008382892688
C          -7.33829783927412   -0.99183790806921   -9.52471936257455
S          -6.24155303083297   -2.79641431670852  -11.33798123120339
C          -6.17988967509156   -4.44031050210723  -10.76038124345009
C          -6.67223888377090   -4.60533695742174   -9.50932466710552
Br         -5.47252581988617   -5.78286915121760  -11.86219828873740
C          -8.69932534755818   -1.36861607227338   -6.15032765501355
O          -9.02589899288125   -2.01780616383930   -5.16261830069856
C          -8.88616858010626    0.07079051199289   -6.34370787289956
C          -9.45775260225019    0.87095080795381   -5.38517975568120
N          -9.82560782428004    0.36013126434898   -4.20506368301197
C         -10.42076624512278    1.00215732829180   -3.16696168222441
S         -11.17502940936221    0.02120971282744   -1.94620948109736
C         -11.76597872814694    1.45732082041936   -1.17520122415944
N         -12.45248017697373    1.34012781543259    0.03640071361619
O         -12.86290836349299    2.36536420884655    0.55304153737871
O         -12.57401892761511    0.22033175626865    0.50111047978866
C         -11.40092057495938    2.60650595923711   -1.82253960425360
C         -10.58966933661902    2.37793124727196   -2.95226657459017
C          -9.86248969843416    3.41983556977658   -3.62287774711234
C         -10.16319955414969    4.73243825220262   -3.52958048110848
C          -9.31232078757767    5.75041975354147   -4.06031575078803
O          -8.30856783499485    5.39734092575986   -4.90688830324677
C          -7.70377063360811    6.47945053574649   -5.34392822764517
C          -8.27504362858769    7.60285674990990   -4.78622542444502
N          -7.91861592246876    8.93699309198128   -5.03056259209342
O          -6.91202123054127    9.15595472394628   -5.66970663737156
O          -8.65764979359398    9.80535955984096   -4.57736665952449
C          -9.31899074726055    7.13753543414445   -3.91197562582265
N         -10.09616463687389    7.98921298172618   -3.17833560920988
C         -10.72766649139619    7.82111386909494   -1.98469663189064
C         -10.54849965099097    6.87279234092703   -1.02333432341597
C         -11.36203050013435    6.73169904335319    0.14056904617139
C         -11.06939456943583    5.65062887610539    0.90668896000628
C         -10.01136433905982    4.85805724035500    0.39659163841903
S          -9.30143405192521    5.62561956235082   -1.01193318635241
C          -9.62662039883462    3.59183441011998    0.77192393705991
C         -10.06054507857978    2.81217771944865    1.86828220661082
C          -9.61694305337026    1.52866615565644    1.83197346897419
C          -8.82673295334390    1.20055637039470    0.69091799622508
S          -8.55794304916160    2.64925679682932   -0.25603270038411
C          -8.47487142579853   -0.08085660947188    0.36421042996250
C          -7.92243522319538   -0.64579443699131   -0.80689503352416
C          -7.38895441391880   -0.14758422498282   -1.99249966476321
C          -6.94798652220377    1.21120024426720   -2.31254910225758
O          -7.12152670434698    1.74317955859022   -3.38647876076680
O          -6.24868857383440    1.78580869265982   -1.32538092883749
C          -7.16692605924443   -1.15765686828332   -2.96223051918501
C          -7.48715995203690   -2.40273865624749   -2.53389283353586
S          -8.10120523420968   -2.38639202866954   -0.93314131729366
H          -7.85110806179885   -3.95966530913681   -6.99458888104664
H          -7.18921979502039   -0.19730337232218  -10.23654698418950
H          -6.71110225749591   -5.55100849992919   -9.00024491928693
H          -9.65593256825816    1.91543283057139   -5.56737120080620
H          -9.65818565426680   -0.65568858000902   -4.12446700383602
H         -11.67382455040495    3.57673200456151   -1.45122800040411
H          -8.93435015459453    3.13750897379237   -4.09634781994047
H         -11.08335873315818    5.07242895121582   -3.08092212907595
H          -6.90499740867018    6.38435345793230   -6.05324556862272
H         -10.03809332388122    8.94817211031451   -3.52650990099046
H         -11.46102288712009    8.59128862902598   -1.78056307317082
H         -12.16395559659392    7.41950892768235    0.34120411558055
H         -11.61758062073825    5.35761638780314    1.78284147690113
H         -10.70413695370402    3.21184879946610    2.63031484191622
H          -9.87304679462564    0.77788089860032    2.55812070381784
H          -8.77779325257042   -0.82124250354927    1.09603391580263
H          -5.96114740051310    2.67516031445289   -1.58667435915443
H          -6.74757898181404   -0.93867072808820   -3.92785353195107
H          -7.40428499894321   -3.32763211861864   -3.06672636536407
