113
 SCF done       -195.075861325422          0.000444916005
C          -5.04093900856194   -2.15880640796699    0.39549019975666
C          -4.57861796511117   -2.90763272848697   -0.65631082551072
C          -3.88397527727229   -4.12607590916704   -0.51344009075658
N          -3.32049782361649   -5.12530481431693   -0.46243278176946
C          -4.76152312262367   -2.58789284021767   -2.01742008248538
N          -4.86811075657092   -2.39519405143051   -3.14443958821743
C          -4.86391727072696   -2.47328939819667    1.80922657793844
C          -5.58778491015172   -1.53487998068344    2.58574970173969
C          -5.60038551201414   -1.55965954565980    3.95817497328131
C          -4.84286823719952   -2.54511025011450    4.59869483173074
C          -4.12110879863193   -3.47749298200471    3.81613801667936
C          -4.12171471523458   -3.46293342953236    2.42739809888874
S          -3.25579649760353   -4.60961791949242    4.81026039606358
C          -3.86572047657832   -3.82400878126364    6.24219305978922
C          -4.67598940757478   -2.76880445872489    5.99243612430811
Br         -3.38041485125246   -4.47724019976546    7.93001798749012
C          -6.28635917228500   -0.60068349571711    1.68258361538411
O          -7.21298390149533    0.12751255392142    1.97313541883436
C          -5.75493891410327   -0.90036671693807    0.32249267581812
C          -5.91178263828465   -0.08942561781037   -0.76122896168134
C          -6.23462911174226    1.29217806660174   -0.66152835763346
C          -5.84729932676922    2.07193805423553    0.45259590513143
C          -6.23699792481543    3.45572295204498    0.58648262260463
N          -5.90464503762368    4.11941588310251    1.70650606966383
C          -5.24532440259504    3.50725491058104    2.65742784274243
C          -4.76121041888035    2.17317013501139    2.46946384816649
N          -5.05617750734062    1.51343838114897    1.37636041162730
C          -3.95621592489293    1.53959534677754    3.44490744479350
N          -3.34743293070656    1.01383829359806    4.26178504702259
C          -4.96436642084116    4.19855470285175    3.86111789132710
N          -4.73314738359338    4.72479932156975    4.85236925365714
C          -6.95112249016172    4.13384541999041   -0.42541653608145
C          -7.20620594775463    3.39293134812428   -1.59793745482579
C          -6.86291252706111    1.99212688238197   -1.70876122654390
N          -7.25497413070981    1.46852046675416   -2.86842083502308
S          -7.97298994359462    2.61035801701293   -3.73908792349917
N          -7.83895846051528    3.82247184188454   -2.69514751861654
C          -7.43771482076238    5.49276077082001   -0.26251466005485
C          -7.50389155821259    6.34439370797014   -1.37674185827129
C          -7.97496302612906    7.62281802139448   -1.22111006688954
C          -8.39163206917613    8.08904015798397    0.03843637358820
C          -8.33771631039132    7.25210887834701    1.14387901360689
C          -7.86660819434266    5.96483173347428    0.98562099347390
C          -8.84106953750087    9.45634056536107   -0.10409313925342
C          -8.71393026240705    9.83177495869388   -1.45304583807069
C          -8.14211359746550    8.69685353822678   -2.27015359151380
C          -6.79026421396312    9.08569417598652   -2.89719273004573
C          -5.76959422382344    9.54737411562553   -1.86395693321870
C          -9.11306979382307    8.24504942345727   -3.37662326025533
C         -10.47346949679885    7.82555271960056   -2.83330051603746
C          -9.08532217035045   11.08803566303067   -1.86403385448668
C          -9.57474963372194   12.01423934423780   -0.92952361535083
C          -9.69452591419904   11.62245991190226    0.41046521432595
C          -9.33765674522952   10.35670269082521    0.82800008206765
C          -9.93263876662070   13.33758831313278   -1.39066952887701
C         -10.16839833140868   14.41721523839818   -0.62407955016055
C         -10.50044348818099   15.70160997916049   -1.17216244062464
C         -10.65982503558851   16.83087504454186   -0.46651702863028
C         -10.52361869826026   16.90573778208568    1.02717089136414
C         -11.02706493877117   18.12423706182428   -1.15267224038643
N         -12.35487154530719   18.55676664535460   -0.78000971029214
C         -13.43919217754322   18.42587464962692   -1.55825179857197
C         -14.71205799829276   18.66421069199939   -1.12761534155133
C         -15.88486968766054   18.62395217043172   -1.90278457231092
C         -16.06228602212120   18.36904483753641   -3.24051889796633
C         -17.31655283384388   18.38458421621108   -3.90212242481144
C         -17.26609435752365   18.12361416275444   -5.23576255286122
C         -15.96071563607717   17.87758583979218   -5.72339509252163
S         -14.80384565182095   17.99127715856756   -4.41354770279982
C         -15.57521248984237   17.58848788873933   -7.01257447791032
C         -16.40697697013155   17.47601335714466   -8.15843005439950
C         -15.74650986541148   17.18516058086651   -9.30255733048494
C         -14.32828325084546   17.04214147378632   -9.14900252621489
S         -13.90031328064709   17.30437037889563   -7.45102154160241
C         -13.42225264489076   16.75824672796394  -10.09570217929380
H          -6.16362117659298   -0.83457496876852    4.52416720816962
H          -3.55514230482972   -4.19493893974144    1.87619358562769
H          -5.13452806637477   -2.16807601244992    6.75635880188604
H          -5.73935214233135   -0.45961805496213   -1.76291523701552
H          -7.17165563207845    5.98836272647418   -2.33822849583287
H          -8.67002444110896    7.59370750015559    2.11256302916533
H          -7.85292618267610    5.29862249014028    1.83269825146785
H          -6.95796334469046    9.88430062712415   -3.62319317008037
H          -6.39567015016120    8.22168555217986   -3.43565239889693
H          -6.13080667377895   10.42424803831120   -1.33089291383136
H          -4.83226191510962    9.80374459361936   -2.35245258718925
H          -5.57559248548217    8.76119879637210   -1.13778877827928
H          -8.66489056858888    7.40504797164132   -3.91065315384483
H          -9.24159107516649    9.06535293125039   -4.08621094580180
H         -10.36972988581412    6.98325691901104   -2.15346281401020
H         -11.12687931946696    7.52906030850487   -3.65052961038283
H         -10.94399106332322    8.64633801821879   -2.29605526121478
H          -8.99284008554867   11.38064806808623   -2.90061173627972
H         -10.09004513190929   12.31987421621857    1.13280516189402
H          -9.44349706171815   10.07261242514691    1.86436070536567
H          -9.98169820363226   13.45277692475015   -2.46734688299245
H         -10.09806061176131   14.34527078716324    0.45030534915848
H         -10.61247026911325   15.73897485122058   -2.24856699720729
H         -11.35517837171583   16.40049800265485    1.51959467380658
H         -10.50140899714670   17.93999577513290    1.36371320740454
H          -9.60353924312226   16.42626182716600    1.35514884185450
H         -10.99824893919675   18.00603316362513   -2.23696069587055
H         -10.31474232637930   18.90855272656594   -0.86650873477829
H         -12.50473147000811   18.74655575517666    0.20105253760779
H         -13.23697966548732   18.15030230107153   -2.58155585860504
H         -14.84638201796847   18.92160396206676   -0.08438653343578
H         -16.80152709489040   18.83660597545943   -1.36569153951192
H         -18.22385869836113   18.59517472747740   -3.36285398171466
H         -18.12570237691422   18.10207196998027   -5.88087015890618
H         -17.47135440624416   17.61719943384326   -8.09284837556073
H         -16.20847546255193   17.06350408581776  -10.26609939738893
H         -13.72578381411710   16.60715346637723  -11.11641258206098
H         -12.37510493939555   16.67395343210616   -9.87044385720133
