98
 SCF done       -196.713583147127          0.000695026787
C          -5.56209137474419    2.31904220300612    5.57516765967887
C          -6.80710767336019    2.57820246181371    6.08503820517188
C          -7.22468738394664    2.21213671349862    7.38277028951155
N          -7.62352995996482    1.94792680471706    8.42573055733854
C          -7.84430443787832    3.24812833033173    5.40206054051339
N          -8.73520674279347    3.78066114854138    4.91138676021759
C          -4.49687745267395    1.59711020163385    6.25864651285966
C          -3.36125843880995    1.53851626308039    5.41269472926970
C          -2.19576931912455    0.90921244796058    5.77749634166341
C          -2.15102009452106    0.29596232827888    7.03336801310278
C          -3.28955696598564    0.36055260532897    7.87397291750747
C          -4.46437564364729    1.00465600704899    7.50867877101823
S          -3.01852834202709   -0.45955609883715    9.38084822508027
C          -1.40441144953706   -0.87568222934712    8.86893573319564
C          -1.08212587839293   -0.42340733406025    7.63329936467599
Br         -0.29852774996091   -1.86612241972417   10.01284687848617
C          -3.64851931297331    2.24032852695028    4.15104316775688
O          -2.85535765250808    2.53658974059249    3.28850891107881
C          -5.08160258938309    2.65726806552931    4.24576740082245
C          -5.74888044062942    3.33928555530703    3.27859212582517
C          -5.32427737873295    3.41477097690260    1.92464547156286
O          -5.74669339631140    4.45194714750323    1.14897224948551
C          -4.60524166308757    2.54727001200023    1.12609806273416
C          -3.96309260960816    1.22327239464721    1.08214085225081
O          -3.86101561894314    0.36211445733945    1.91352992533641
N          -3.52095358213564    1.12268696851038   -0.23433868539625
C          -3.84988610355803    2.19397617060123   -1.05760155217653
O          -3.58015644880550    2.27820601918017   -2.22924062726428
C          -4.57477942633834    3.10722063445722   -0.17081571413842
C          -5.28817798059122    4.29473456682766   -0.11420702000850
C          -5.59980408447535    5.27005705679433   -1.10425191170140
C          -5.12612123503989    5.17887964276588   -2.36330027510877
C          -5.38763708821157    6.12378862826505   -3.43163291972676
C          -5.30034258776629    5.73164923111267   -4.78059699606980
C          -5.00701994665389    4.30202414522719   -5.14269598817151
C          -3.52508074088485    4.11353058094738   -5.47693295615649
C          -5.46196039115117    6.70237890635854   -5.78737948580045
C          -5.76690258789333    8.02116924011851   -5.43212652592652
C          -5.88754003029000    8.39056455020999   -4.10854185728058
C          -5.68863789872486    7.45284727991525   -3.11580766150246
C          -5.31615075005920    6.35812931678327   -7.18752266475361
C          -5.01501882768234    7.21943784337859   -8.17913546315495
C          -4.86942637803453    6.81157397625592   -9.53645604412072
O          -4.99125643613171    5.50814903678257   -9.90091272465594
C          -4.58865021761726    7.55214818131698  -10.66874253223378
C          -4.34986315696324    8.90688423972248  -11.17279493739862
O          -4.30251394027454    9.96772528126870  -10.60957929348224
N          -4.16952686502617    8.71673574586032  -12.54555146743360
C          -4.25962437173335    7.40299234218020  -12.98084841354683
O          -4.11512921074304    7.03302973502909  -14.12001890028365
C          -4.53975866459214    6.64664589685960  -11.75556339818113
C          -4.79597072205268    5.38844017473183  -11.24203705005546
C          -4.90163417139555    4.12092040656529  -11.86981195390137
C          -4.72656160326429    3.98296616720918  -13.20663694250725
C          -4.86191828691532    2.75598065935647  -13.90054678345904
C          -4.92690339173729    2.62355937720268  -15.25220099873817
C          -5.04937599622027    3.62763870758999  -16.29259694060528
C          -5.70365702069813    4.82612391730283  -16.19560174691707
C          -5.83388696220641    5.73342498983806  -17.26866058292756
N          -5.96314996363469    6.49862090756204  -18.11373288928340
C          -6.43831047795716    5.24521597697682  -15.06448630922218
N          -7.11476404728782    5.60155130000842  -14.20887848910964
C          -4.55584136265897    3.02360138477111  -17.52601812478210
C          -4.37006474779824    1.63312280551004  -17.31113350226456
C          -4.67381500034059    1.30913230225605  -15.90331764174767
O          -4.66843961341295    0.22427875193227  -15.36979828419195
C          -3.95055633153269    0.78328753918853  -18.30620975917731
C          -3.69233832954023    1.33064054120910  -19.56699153468879
C          -3.86686187578297    2.72172466853690  -19.76688923545696
C          -4.29851198058154    3.58108255596712  -18.76391535725760
S          -3.47976423647084    3.18637279309308  -21.39495259816916
C          -3.09869745212528    1.52910696034658  -21.78211762099292
C          -3.25046707138062    0.67034053802481  -20.74612459969220
Br         -2.53377879951373    1.09036695179571  -23.51525164022474
H          -1.35062363739449    0.88183903882817    5.10825469673135
H          -5.30180421146092    1.02746569992727    8.18572811049100
H          -0.13040678796234   -0.59009735299926    7.16287331760478
H          -6.67280372287383    3.85710068874243    3.49953634086751
H          -3.02041331427063    0.31353999991809   -0.57416117865959
H          -6.25681966573052    6.06522573450946   -0.78428405283315
H          -4.48587104498201    4.34020724371397   -2.59507480118771
H          -5.61303243008257    4.00282819702685   -5.99947992546775
H          -5.27431748285218    3.63634666471460   -4.32402173737692
H          -3.22993753615113    4.75676215141698   -6.30341490397432
H          -3.33366611697876    3.07908724198175   -5.74925172749046
H          -2.90991829554463    4.35647810934554   -4.61442634234891
H          -5.92998793205358    8.75402049566687   -6.20614124066352
H          -6.12481699496418    9.41139671162143   -3.85053154384110
H          -5.73589777868909    7.75417561584534   -2.08131603898684
H          -5.43996349323930    5.32106319498633   -7.46320662681087
H          -4.84143097985751    8.27124932945638   -8.01003061851324
H          -3.99321287731852    9.48456435318815  -13.17814883653691
H          -5.17624459924939    3.28324147428184  -11.24470440229702
H          -4.45487096051742    4.85759402623049  -13.78084611012555
H          -4.85038933378086    1.83538395552754  -13.32746663518742
H          -3.82456472611326   -0.27136404079477  -18.11794177658014
H          -4.41086889787940    4.63487208805509  -18.95823595357506
H          -3.05884921464376   -0.38527252495469  -20.80852107829553
