108
 SCF done       -193.784959004388          0.000913085945
C          -2.78190891209516   -3.36181297126237   -1.27310364261471
C          -3.00138756335657   -4.60626919672793   -1.80818585762691
C          -2.69002444889927   -5.81292331230052   -1.14778596976097
N          -2.46857203642567   -6.82849596711818   -0.65994214034218
C          -3.50579725947366   -4.87749483446092   -3.09821338632006
N          -3.86101863101905   -5.19958925156698   -4.14151185803193
C          -2.10613481720703   -3.10029233611734   -0.00844073597125
C          -1.93226959251957   -1.70300727081280    0.13207544878651
C          -1.29701960865405   -1.13726480734686    1.21045630857020
C          -0.80635616878048   -1.99336544080433    2.20149691400970
C          -0.98964740162856   -3.38926823269831    2.05703145383019
C          -1.63373570194830   -3.96037408328285    0.96672299920364
S          -0.30929206255412   -4.26417307726700    3.39547638912965
C           0.21159875371456   -2.76425849965098    4.11610665324753
C          -0.11127945326783   -1.66331693152860    3.39693420534185
Br          1.12657981819990   -2.79232421627235    5.75316301768453
C          -2.52429785198496   -1.00623336738942   -1.02859325683452
O          -2.56306705097694    0.19245199727126   -1.18569858197332
C          -3.08566509741593   -2.08293710962786   -1.89207203113289
C          -3.84878816493486   -1.92321173539714   -3.01435386781060
C          -4.11083888675023   -0.74446752214039   -3.74655151100100
O          -3.49627893742943    0.44471183742726   -3.51866707240426
C          -4.94904380891521   -0.58323704681587   -4.84283584442785
C          -5.92429425207650   -1.26219342681302   -5.70556896022960
O          -6.36909305551380   -2.37729001481631   -5.68009917950149
N          -6.28158112056428   -0.27543100208893   -6.62795667646690
C          -5.66411976218273    0.95677995541628   -6.44904509083289
O          -5.83073977097328    1.92702135665868   -7.14716294798175
C          -4.81344707416545    0.75295594617198   -5.27621420036565
C          -3.90324562588390    1.35894353916095   -4.41976189237306
C          -3.37494136523154    2.67696935102006   -4.36268692656662
C          -3.68013153737344    3.60957023331721   -5.28965400346888
C          -3.17127525388933    4.95783318544601   -5.25393491758966
C          -2.98511414199726    5.57689101178681   -4.04778510697813
S          -2.39340021298536    7.17847212541846   -4.14472362917372
C          -2.31799315873847    7.04055012109701   -5.87549542241504
C          -2.78241539173508    5.80827685355284   -6.36112900134167
C          -2.71600804287554    5.56279955179866   -7.75589000519680
C          -3.21713916818904    4.25037928417020   -8.30165442826007
C          -2.21114709490128    3.12143634036099   -8.06868667852816
C          -2.16008002456915    6.51146964657675   -8.60696403906945
C          -1.98749308590903    6.22487024739202  -10.07589918620106
C          -3.21873152171591    6.64697478253611  -10.88200349878369
C          -1.73111733453202    7.76613159270490   -8.11138598311986
C          -1.10754904175199    8.89031292151447   -8.77704448958315
C          -0.77085401559757    9.87385889851235   -7.88972938539149
S          -1.18116361911864    9.54853225869505   -6.25568681323575
C          -1.81911511341569    8.00622493320731   -6.73170451221846
C          -0.81989251760511    9.07344348000006  -10.18238546652547
C           0.30711473904900    9.69018305466947  -10.61081833124099
C           0.63080456554260    9.92870739182239  -11.96401305626114
C           1.79113332057553   10.53508156988372  -12.36188935031442
C           2.22676676278996   10.79403705343456  -13.68742149761291
C           3.43612666694715   11.41053816292141  -13.77127200781503
C           4.03112253130472   11.68838399123260  -12.51804344616813
S           2.99705826593398   11.12415809451571  -11.22156799791482
C           5.23200434303982   12.30933005202710  -12.25368380746172
C           6.17112078745639   12.82703779694623  -13.17984513520616
C           7.25895740379307   13.38421095606275  -12.59307871910625
C           7.25174147782486   13.35914934888140  -11.16432829575850
S           5.77408787206679   12.59072209060824  -10.61243408558992
C           8.29599788786736   13.78762302967199  -10.40023496703330
C           8.49659701332526   13.78856724506534   -8.97772273922627
C           7.45699843258313   13.82027594445776   -8.02360640261451
O           6.19317518300422   13.96358740020751   -8.50231958792742
C           5.10743058225068   13.93684305318012   -7.60901514171270
C           7.76973397135629   13.76859587471302   -6.67020018132491
C           9.08050588633052   13.71266519829081   -6.24501834602143
C          10.12580176524990   13.72789780205314   -7.17021603309462
C           9.82307013792353   13.77460356379178   -8.51847032729623
O          11.38450690032308   13.69404946434687   -6.64660819886838
C          12.47820009423880   13.68243824696549   -7.52982207760162
H          -1.17811145844782   -0.06763873520942    1.28389325969155
H          -1.74964561567303   -5.02917257879324    0.90619728121964
H           0.13020591447923   -0.65935972203538    3.69505979121855
H          -4.33418270269363   -2.79089861829347   -3.44255932297792
H          -6.94703291849247   -0.44667539018772   -7.36816261815914
H          -2.68457610560596    2.86813029599969   -3.55461287312179
H          -4.35260709119763    3.33231572287383   -6.08572419587457
H          -3.22385644859967    5.17169117152654   -3.08387286401157
H          -3.41255100393264    4.32891753350993   -9.36807227469813
H          -4.17095302970732    4.00129145748817   -7.84100014321336
H          -1.28750590619692    3.31746744330116   -8.60986848110370
H          -2.62474960634858    2.17783083834612   -8.41646157725199
H          -1.97105042661566    3.02351166584537   -7.01291825598357
H          -1.79361491226807    5.16510836400806  -10.23741009105847
H          -1.10793255929991    6.76161205893126  -10.43324344121384
H          -4.08708164568081    6.05736520329449  -10.59753512190453
H          -3.04123134798245    6.50683044990878  -11.94636309372270
H          -3.46047570332873    7.69191270304200  -10.70057282984414
H          -0.32699506044275   10.82071009162471   -8.12798548118545
H          -1.54789547211103    8.74932961548503  -10.90955401662361
H           1.04610104047130   10.00164119550182   -9.88328068325186
H          -0.06435003454557    9.61024580222114  -12.72938515272082
H           1.62747399334268   10.51079346877263  -14.53488874612957
H           3.91678923622184   11.67751812599935  -14.69559702240476
H           6.01419914465823   12.77352390945985  -14.24258251225737
H           8.08073554184943   13.82308628003034  -13.13191810167712
H           9.15698607404646   14.12310660600776  -10.96846500357128
H           4.21792271449124   14.00166988812359   -8.23375850140308
H           5.13403615263714   14.78863196456831   -6.92243960161894
H           5.07751507363857   13.00375579960824   -7.03871651384726
H           6.98622307315267   13.77871107930037   -5.92996345821773
H           9.31919039398269   13.67156430129672   -5.19487922020989
H          10.60723119502959   13.77421112836176   -9.25930880664628
H          13.36483645267239   13.63753475285396   -6.89957739633430
H          12.51417487314973   14.59164763422290   -8.13885863118965
H          12.45622877230156   12.80589230987453   -8.18537975766131
