107
 SCF done       -206.984561685480          0.000766987205
C          -4.13615466418006    0.93448367008707    1.16229211013481
C          -2.95453455020483    1.50388401886153    1.56970587197478
C          -2.03163270956268    0.87986764189461    2.43317831943654
N          -1.23652538340995    0.42254870765898    3.12360932810738
C          -2.51033885122582    2.78889108551791    1.20124757979207
N          -2.10098834705800    3.83168662377958    0.94484233180155
C          -4.65183180493997   -0.35528432058066    1.60394671241488
C          -5.93394409386699   -0.55198291587737    1.03437368850642
C          -6.68715979316752   -1.67524954266395    1.27006971498113
C          -6.14959779844803   -2.65466745133899    2.11271139058704
C          -4.86691552235411   -2.45242466540246    2.67478198221529
C          -4.10498729532020   -1.31526353305168    2.43473023685668
S          -4.39190643877309   -3.78807265322035    3.67945655645526
C          -5.90294535086424   -4.58775446163063    3.33721318530125
C          -6.72233850212950   -3.89251171968198    2.51289767693864
Br         -6.25450081724251   -6.26550042688926    4.09765642265107
C          -6.27320815137900    0.60486156219323    0.18839944649322
O          -7.25930604698287    0.73077464663235   -0.51415305766291
C          -5.12878765147217    1.52638710982940    0.28915261644992
C          -4.94183110358408    2.65384768914641   -0.46865972340963
N          -5.86075540451325    3.35998257081817   -1.15948106919494
C          -7.20578877115722    3.50338527067671   -0.97289641803581
S          -7.99811778147354    3.09658805425194    0.50904469933529
C          -9.45697667326187    3.80894770224961   -0.09256421884934
N         -10.59429717042673    3.81517443816815    0.70783616674250
O         -11.60521795657780    4.34488532666937    0.25271867357643
O         -10.52017753932878    3.31091586016227    1.81569431716852
C          -9.33450684494389    4.31450988552210   -1.36111076694685
C          -8.03940770928220    4.16392262199670   -1.89316762580440
C          -7.64040841219567    4.61774630054441   -3.19423383070255
C          -8.44415309888272    5.45143416923789   -3.90593154321056
C          -8.31282512696924    5.96397515945335   -5.20684213195313
C          -9.33611635235777    6.72497626041123   -5.72738588793396
C          -9.50158808831796    7.31195441860087   -7.00526958654570
C         -10.69870304195078    7.94568683235863   -7.19095575554029
C         -11.54987050513126    7.89992281866039   -6.06875958556167
S         -10.76313337909812    7.04840759419396   -4.75792452568682
C         -12.83802636093553    8.33928903665578   -5.84082208082947
C         -13.78729691860041    8.99176950517001   -6.65831200501706
C         -14.99439157601698    9.18562051217191   -6.05960489287955
C         -15.08326518648546    8.69424461970616   -4.72601344502449
S         -13.52492452198642    8.01468427183287   -4.26554760747317
C         -16.19066065243923    8.71568482512110   -3.93365497188552
N         -16.32388215151742    8.29145226597408   -2.65528355691482
C         -15.31448374715396    7.76912264117662   -1.75375959642233
C         -15.19157175221365    6.24350459197525   -1.91191707208121
C         -14.54358116663372    5.63552838245772   -0.67547724622405
N         -14.42381016426549    4.18753832594043   -0.72961452420994
S         -15.05162556152383    3.54059228514744    0.76950935225777
N         -15.11465805547883    5.04881699980095    1.58949765595157
C         -15.45610283497131    5.96325417298115    0.52268852531080
C         -15.34613326496342    7.44004243366983    0.84263027441218
C         -15.77500671470966    8.29234564831402   -0.36250209794118
N         -17.22376462452882    8.45913664832796   -0.43509238713338
S         -17.83556216504643    7.94439611051301   -1.95097584977030
C         -17.90234880141115    9.32675756402563    0.33805476474983
C         -17.39603932429961   10.01439409480014    1.39743661384090
C         -18.14159857852222   10.99226998865415    2.07427437879103
C         -17.66592774852210   11.91475992286428    2.96851655948394
C         -16.32887580378534   12.29868395712787    3.34272111163282
C         -15.17627801716096   12.19477133401155    2.59610056325717
C         -13.91262958898028   12.64467955658865    3.03202877441111
N         -12.85174196615285   12.97009171317054    3.32750302589499
C         -15.09030704546547   11.72272990812281    1.27650937066271
N         -14.94234656691399   11.37070592611019    0.19028410843193
C         -16.42636354493946   13.03319334489410    4.60425004435918
C         -17.79391598013892   13.27340805222924    4.88765457925533
C         -18.62082993256491   12.63945801239421    3.83938058959435
O         -19.82685373174987   12.66987480894465    3.72900021783502
C         -18.20812710204986   13.97045981310996    5.99523615201785
C         -17.22684004277308   14.44330808235828    6.87416658506049
C         -15.86546153757724   14.18542337516353    6.59082104711434
C         -15.44570347321626   13.48788862651776    5.46415062545397
S         -14.82159165839504   14.84328798680514    7.81435025572723
C         -16.20982025158473   15.45252566829062    8.67557811631169
C         -17.39449589623809   15.17655359603317    8.08084774626555
Br        -15.96360289126719   16.39096847688995   10.28094808396162
H          -7.66179380235630   -1.79364233885750    0.82342712881054
H          -3.13237766926056   -1.20928452227420    2.88519238609264
H          -7.69087820706791   -4.23667944594984    2.19913605580022
H          -3.93693144838054    3.04241308434432   -0.57647690006174
H          -5.49287990159365    3.96826896137201   -1.88356365885506
H         -10.17224168334936    4.75144521940582   -1.87182436842944
H          -6.70610758130586    4.26671113817434   -3.60966246725816
H          -9.34684141876510    5.77546646942630   -3.40646598521336
H          -7.44522481521088    5.74705391760030   -5.81198640066892
H          -8.73543293111931    7.23919855222801   -7.75730564307455
H         -10.98994402863049    8.43385268417663   -8.10459605331770
H         -13.55531548427220    9.28557674443021   -7.66639342146532
H         -15.83771268290493    9.65548007589994   -6.53395781875981
H         -17.10612287013422    9.11900583024464   -4.34690626758008
H         -14.35417829674009    8.23532552017387   -1.98521293544713
H         -14.60122584425349    6.02430293917389   -2.80144658909111
H         -16.17983960367178    5.79770712414997   -2.04381919283443
H         -13.55605229028778    6.09335377801343   -0.51971351212691
H         -13.44795839515074    3.91491327340282   -0.81434525293779
H         -14.21091123484261    5.26646717716496    2.00625609642209
H         -16.49019110928179    5.71647334714697    0.24916939193334
H         -14.31180279964763    7.68513515866895    1.09411435324824
H         -15.97302571808900    7.67738742382305    1.70189486299906
H         -15.35367269582796    9.30416641496215   -0.23626718259433
H         -18.92849202020593    9.48548763919308    0.03383141372911
H         -16.37905563308113    9.85122650952357    1.70976117619290
H         -19.21477390546109   11.01253630913835    1.91877696500216
H         -19.25625777131245   14.14506752141299    6.18092624161044
H         -14.39631203473233   13.31129400152418    5.29684454588953
H         -18.34826048807901   15.47547606194313    8.47568794368290
