86
 SCF done       -155.806589459565          0.000395818253
C          -8.13629538967353    6.86427914270943    5.11277403543555
C          -8.09377251916944    6.12916021881182    6.27258715200732
C          -7.90877954832007    6.68196882122197    7.55450293926589
N          -7.76030066721722    7.07857772519714    8.62206605827804
C          -8.23235010931631    4.72853314667623    6.32236927977327
N          -8.34229818294940    3.58836534440091    6.40681132436931
C          -8.00217731106014    8.31415861448371    5.01448493269496
C          -8.10602065209166    8.69647201133387    3.65101013980138
C          -8.01980049610873   10.00415851862532    3.23919930002074
C          -7.82047775155075   10.98480410524233    4.21706911032805
C          -7.71719766836541   10.59500723296206    5.57326456477294
C          -7.80525405501313    9.27180261260147    5.99068412263426
S          -7.47173750038557   11.96339817040188    6.61425854251598
C          -7.51033816617667   13.02682815463423    5.23257124785740
C          -7.69790890533753   12.39126745174840    4.05142889991851
Br         -7.30010394872872   14.87445921132838    5.47881892922987
C          -8.30869255895159    7.49195094366143    2.83846073574387
O          -8.44078854956484    7.42697683142936    1.61762003987828
C          -8.32231555700697    6.36406771695981    3.77176457442463
C          -8.49152221528057    5.07153423684324    3.33402621748128
N          -8.65207383557559    4.82451680611937    2.02786179007847
C          -8.83090529566520    3.61988441640296    1.43488770383682
S          -8.86909568773310    2.14944563560802    2.35963855193961
C          -9.12972124706400    1.26371747215383    0.89128426741091
N          -9.25572655806583   -0.12687710335616    0.97224520122874
O          -9.44616394996395   -0.73668620402316   -0.06618859373544
O          -9.16586387871912   -0.62617662228017    2.08107473481353
C          -9.18278040375480    2.05275779636337   -0.22652027676867
C          -9.01243128224228    3.42091901735454    0.05817998814475
C          -9.02018884219538    4.48474272473942   -0.91139935908115
C          -9.30042238057829    4.32522962196057   -2.21876252949343
C          -9.29934622242711    5.41158570401535   -3.15473189810874
C          -9.64910317373631    5.31655319570443   -4.44704207034718
C         -10.08933439393943    4.03819367938509   -5.09785362426908
C          -9.58659544497623    6.51784712254075   -5.35867922166426
N          -8.61017702651636    6.32807598777233   -6.40652529005849
C          -7.37851184484244    6.87408015260012   -6.41012818729055
C          -6.37687325312947    6.47889045978555   -7.24176395881198
C          -5.12728591526059    7.11713320987155   -7.31531543325312
C          -4.09691791201662    6.71156006172087   -8.12289260398689
C          -2.82820175994791    7.32343981160327   -8.26732239908226
C          -1.99725577344733    6.69245574042716   -9.14064962675803
C          -2.55338666137869    5.53385427209907   -9.73382416995520
S          -4.18373704897659    5.28538679328138   -9.15736097441624
C          -1.96145676251130    4.66359828082699  -10.62540401227383
C          -0.66126423457453    4.75587723514955  -11.17285048522746
C          -0.35188001030145    3.73003005714288  -12.00927369841855
C          -1.39067350947052    2.77236947054970  -12.16051013158886
S          -2.78898265838476    3.22004777430073  -11.21546254585125
C          -1.36660525251618    1.63292908091840  -12.91252549336376
C          -2.49224312415315    0.76190625971178  -12.94425173702512
N          -3.55518945733319    1.13922007419109  -12.21459862194339
C          -4.61051821254224    0.35263678740870  -12.21476280517779
C          -4.64170417055127   -0.82832744550327  -12.93660577039094
C          -3.49193681304589   -1.15086124633332  -13.67516426531916
N          -2.43144519837157   -0.35464051541482  -13.67328191422978
C          -3.43381576073710   -2.37558933899629  -14.46619390490855
C          -2.36935937002672   -2.73055423030667  -15.17432441286942
H          -8.10327748741333   10.26504912387948    2.19580596014229
H          -7.72042764444546    9.02606630626565    7.03589461889094
H          -7.74778416296789   12.89265597470574    3.10217465325318
H          -8.50276177118579    4.22456205281677    4.00705170253613
H          -8.63406231593584    5.67817257560154    1.44146571967110
H          -9.33162649301383    1.63519595686099   -1.20468920027505
H          -8.78880943337245    5.47885480582409   -0.55220307984150
H          -9.54287754074769    3.34622441668807   -2.60054861107287
H          -9.00291966096417    6.37481059920518   -2.75955131177202
H          -9.24460371901691    3.36252110528499   -5.23595628275365
H         -10.53679277557318    4.23238823085098   -6.07009534299960
H         -10.82751311513771    3.52535503766190   -4.48528813817711
H          -9.32164616710363    7.41546861733626   -4.79746719110262
H         -10.56848573289775    6.67512126689107   -5.82412492584288
H          -8.74266744558219    5.51509800687715   -6.99148622964381
H          -7.23425641551231    7.70249543911187   -5.72981814697751
H          -6.53806736967212    5.63302001827449   -7.89699083710014
H          -4.96169658285573    7.98996680841238   -6.69705693004835
H          -2.57295575223802    8.21444717276195   -7.72030301864665
H          -0.99956432101213    7.02055759203089   -9.37083857769199
H           0.00681639179881    5.56709735583898  -10.94119579713058
H           0.58647278629372    3.61840516561056  -12.52366850271245
H          -0.49637173288480    1.36436284756913  -13.48841306799658
H          -5.45102073324442    0.68376323949054  -11.61710036125885
H          -5.50628411093003   -1.47215213188127  -12.93357044929201
H          -4.32384645399981   -2.99044750651170  -14.44010664688470
H          -1.49306012608658   -2.10540645619451  -15.18351373999024
H          -2.34166403536898   -3.63952582832264  -15.75024063305892
