94
 SCF done       -167.902597156879          0.000664841580
C          -1.75746360527980    2.34279741171403   -2.06532209589566
C          -1.26964946135703    1.25223820109575   -1.38956447648797
C          -0.00201587207618    0.68399887329155   -1.62426770897605
N           1.02550230810034    0.19128259374119   -1.76769658775524
C          -1.97941375082599    0.53387438489194   -0.40541930441216
N          -2.50697723276960   -0.11906258007915    0.37852500584014
C          -1.09344603830521    3.02080476154606   -3.17496800651752
C          -1.98061706536255    3.99098392873472   -3.69757533394226
C          -1.66454886371172    4.78834735557478   -4.76870008899282
C          -0.40096524088396    4.63028609995325   -5.34705459750629
C           0.49048083546388    3.67809055341623   -4.80209125672472
C           0.16378855490701    2.86110789511816   -3.72511925211341
S           2.01384510442198    3.68033726551401   -5.64018217168780
C           1.43455524015365    4.93893939849181   -6.69837809758143
C           0.16710332517280    5.33784414715604   -6.44124126066404
Br          2.55829638564460    5.61402758631692   -8.03837469182720
C          -3.21220385255372    4.01242741129844   -2.88572104766135
O          -4.11048596352584    4.83062893597787   -2.99244342623761
C          -3.04595224156145    2.97047061734668   -1.86656906664367
C          -3.84730794894945    2.81162861091396   -0.75774979496304
C          -5.12791670395330    3.34144913969024   -0.54481684624573
S          -5.52092017641820    3.82421476373660    1.08744785550595
C          -7.00592694062810    4.55259697637204    0.57354472593891
C          -7.24108663341888    4.30605401756748   -0.78138801843804
C          -6.19832217915435    3.61227394245593   -1.40278488849599
C          -6.31676273999038    3.11569960595538   -2.80206264349707
C          -7.78276260415928    3.03396702844883   -3.20824873906769
C          -8.41514950140767    4.41061539858663   -3.01926607609162
N          -9.78854584027419    4.40243268503314   -3.50894217917832
C          -8.45321259918941    4.76285065524459   -1.52724691918463
C          -7.67859363101310    5.37404224738273    1.51935017216476
C          -8.83924089288546    6.05214617627090    1.36040408200687
C          -9.25020536236665    7.06337993617652    2.28103507959383
C         -10.26541334194437    7.93343466635590    2.10942292814763
C         -11.21992881729885    7.93120775975656    0.96030403443730
C         -10.32510554059724    9.16195690875599    2.98351667982224
N          -9.40355400409800   10.13566339737039    2.41216450762640
C          -9.74467048820983   10.89643824042308    1.34198389769600
C          -8.86799411535477   11.22988845744787    0.35740407165333
C          -9.14482154238819   12.07964943702025   -0.72790698268117
C          -8.29601465332176   12.22430241683789   -1.79674702022601
C          -8.45487257171669   13.03834608590395   -2.94354528110236
C          -7.45623250998259   12.91468500282750   -3.86372186162516
C          -6.45803774590586   11.98302558075740   -3.50235794155085
S          -6.80317448851001   11.29833526484694   -1.93416220831390
C          -5.34975649953356   11.56340890327843   -4.21593230323704
C          -4.88759015460480   11.97035326679323   -5.48416678875903
C          -3.76653591629848   11.31305006109736   -5.89599302227522
C          -3.28372836293097   10.34390761674905   -4.97790431548864
S          -4.31346733463912   10.31159877078373   -3.56298032534217
C          -2.15329745286988    9.57993998598682   -5.13912901727582
C          -1.65788595809767    8.60872803121976   -4.24686578593950
S          -0.00234487981624    8.02555731689993   -4.40085208893939
C          -0.08998260494280    7.00176915916901   -3.01716410749282
C          -1.33658366235723    7.08251477818152   -2.44768131939431
C          -2.21345105354228    7.97024829835706   -3.15057268124553
O          -3.44115216252330    7.96227697614292   -2.59139260019713
C          -3.35759211210194    7.12112819469868   -1.53444292331456
N          -4.50972627065988    6.93215190589871   -0.75359275944640
O          -4.37246904948694    6.26800340698742    0.26418893929918
O          -5.55498351491246    7.43929396415751   -1.10592315423815
C          -2.11552409134118    6.55972623712583   -1.37985035464719
H          -2.36649049347890    5.51487850709309   -5.14810428587957
H           0.87842514347935    2.14918043615461   -3.34702501049517
H          -0.34503481785686    6.10459684042998   -6.99276653525720
H          -3.40963403357679    2.31852829837401    0.10313726986178
H          -5.81658767024827    2.14929482225311   -2.89902817703511
H          -5.80732886264020    3.81895030026784   -3.46921916203475
H          -8.31659071809420    2.30515984189230   -2.59641520004932
H          -7.86153924658185    2.72488768928767   -4.25210998948774
H          -7.78249941789115    5.15034974271833   -3.54242059766151
H         -10.19191295495257    5.33052618358253   -3.43438037901440
H          -9.81246151782119    4.13532196314789   -4.48722078916490
H          -9.34447287465300    4.29141757655938   -1.10132009429878
H          -8.54640517201233    5.84693765725534   -1.41874907355676
H          -7.12906081809955    5.52011788167585    2.44200081921492
H          -9.44432179200090    5.90351778806154    0.48479193838071
H          -8.61853260713551    7.18586608409953    3.15374705382766
H         -11.23605951469846    6.97759898838928    0.44361140416005
H         -10.93999948635733    8.70848307097594    0.24489478332163
H         -12.22775735004936    8.15114560362890    1.31089689637747
H         -10.00206572035627    8.94749537635133    4.00495569175450
H         -11.32410280736856    9.60026340465556    3.00561136805888
H          -8.44892505435180    9.79479257639964    2.38257170918633
H         -10.76489833508803   11.25702152216835    1.33343872592318
H          -7.88157854045233   10.78286554413771    0.38202400497637
H         -10.07899700017684   12.62523866918266   -0.74112060077965
H          -9.30453701176680   13.68963276197180   -3.05386105449810
H          -7.41671481216888   13.45489263098067   -4.79291266082665
H          -5.38788159424593   12.73114587721783   -6.05684979891795
H          -3.26814242141783   11.48888393041905   -6.83314170827369
H          -1.54889598788598    9.77224504751837   -6.01513166256102
H           0.75873099953403    6.41959331009803   -2.72651266032452
H          -1.82734542199076    5.86480395571368   -0.61867478474335
