76
 SCF done       -170.903683895084          0.000959592997
C         -11.95058404923308   -0.57388978752678   -4.26221256879878
C         -12.70464819042669    0.16918099280625   -5.13577217422892
C         -13.74842031968599   -0.35192159311255   -5.93131073881193
N         -14.60162014227794   -0.69434920992643   -6.61791536742379
C         -12.51748396226429    1.53176458923587   -5.43570812924704
N         -12.39075610676058    2.62426450037219   -5.77164290091268
C         -12.05523834871065   -2.01169284783444   -4.07533209048518
C         -11.01163944411836   -2.43804499639752   -3.21507612959250
C         -10.79777298331194   -3.75804096577495   -2.90560070507970
C         -11.66357359709038   -4.70497469878921   -3.46295041292435
C         -12.71215329127656   -4.26986916330189   -4.30964952283074
C         -12.92585663487665   -2.93549062962725   -4.62530803455811
S         -13.65231718557595   -5.60229302383003   -4.90023625303582
C         -12.64287018790920   -6.71181497079648   -4.01551734407604
C         -11.64949060494911   -6.11639791064869   -3.31062294907559
Br        -12.99047759545018   -8.55024903170640   -4.10056799091752
C         -10.22489730401923   -1.27280760986666   -2.79961334662765
O          -9.18359108815961   -1.26985443587225   -2.16316151501200
C         -10.87092273423184   -0.10094360493223   -3.40823836720623
C         -10.46205019823149    1.19942062856161   -3.32796929838237
N          -9.57359202817943    1.81583590171395   -2.51711893265129
C          -9.03942887243874    1.54766296386837   -1.28943412118478
S          -9.58305990984693    0.27565293962251   -0.26322912391024
C          -8.47141940033720    0.79084224481294    0.95232613604489
N          -8.43375513692764    0.06346016728904    2.14818282301288
O          -7.62630495464952    0.39961088493591    2.99283961038374
O          -9.22784739358034   -0.85488193153620    2.25220785121721
C          -7.70580654261893    1.86461004514388    0.57656289755769
C          -8.04072880486919    2.34662860693821   -0.69941151230324
C          -7.31736590658385    3.44582467819926   -1.28900598271080
C          -7.68536389494578    4.25418156639106   -2.30563047851232
C          -6.82556076724233    5.18201520120832   -2.97025551693265
O          -7.43718391654352    6.21642592340817   -3.62844059276332
C          -6.52062828076249    6.97886944425396   -4.18997486406820
C          -5.26531925590233    6.46979903404406   -3.94312115911996
N          -4.04452574432149    7.02133860178635   -4.36809757436958
O          -4.08186011279672    7.98100937051275   -5.10662222989076
O          -3.01829162391030    6.49457693481074   -3.95966717585631
C          -5.44693809663054    5.27489156120478   -3.16178004401607
N          -4.40464907482704    4.48067837095594   -2.80192161388909
C          -4.42277930008138    3.20549132096326   -2.29725696545763
S          -3.32364500358198    2.83277398715216   -0.98296070932326
C          -3.90762989152364    1.21625101692923   -0.86079878651973
C          -4.89102936246605    0.99271490334401   -1.76531753601637
C          -5.20317174526205    2.11593185646622   -2.60805532337862
C          -6.18889321038704    1.75601668041808   -3.58551455759745
C          -6.58010178963611    0.43050960431516   -3.42284178151523
S          -5.83393104237041   -0.44172436614664   -2.12307157104013
S          -7.74530994570587   -0.09111396066584   -4.56452590342119
C          -7.75583551127650    1.51789611426236   -5.26679833989228
C          -6.86988347469884    2.37000380565776   -4.65349831068973
C          -8.66076899079634    1.77760089277248   -6.33433358823812
S          -8.83164103596178    3.32884976130214   -7.12524957629942
C         -10.04658225378432    2.78250311533786   -8.20691987454830
C         -10.33161875354414    1.45909311467797   -7.98431179851821
C          -9.54979271813023    0.90985736839034   -6.91848095459595
O          -9.86694385927224   -0.38753564667683   -6.70080549584506
C         -10.82818438210346   -0.67282363080579   -7.62773788747914
N         -11.35879432667760   -1.98465358603950   -7.61571936553461
O         -12.12895081067364   -2.27602408749524   -8.50637209818495
O         -11.01761103409097   -2.71877725547189   -6.70761484573158
C         -11.15511077430291    0.38529551534607   -8.42910085532564
H          -9.98555111369492   -4.05203767917832   -2.25962481505873
H         -13.73490780982099   -2.65936069641843   -5.28116256662718
H         -10.93497264628774   -6.65092546214502   -2.71159039050345
H         -10.88876148584278    1.89551672437600   -4.03970531550902
H          -9.22776069600433    2.69328564646211   -2.88933073792244
H          -6.94744498928343    2.28939520798774    1.20870004823381
H          -6.35959903624332    3.62386950197233   -0.82469428315863
H          -8.70570736676657    4.32093345094263   -2.66212374154750
H          -6.82441008062038    7.85292536996368   -4.73147285609374
H          -3.49568095975632    4.93022764438540   -2.91799019775759
H          -3.48395974300705    0.54533452675899   -0.14291402461480
H          -6.72180530113040    3.38285523767380   -4.97848694705175
H         -10.47288516819676    3.45962895964689   -8.91687780216293
H         -11.88896070043880    0.38122630289669   -9.20825280195398
