100
 SCF done       -190.028761486716          0.000760908783
C          -3.60776288508991   -4.05075732402855   -1.55752823767309
C          -2.26842777987065   -4.15746005117781   -1.28914772324842
C          -1.64789852288035   -5.33086381591612   -0.81008468787771
N          -1.08453627967084   -6.25385956270106   -0.42540751877729
C          -1.32084060417189   -3.13071152428742   -1.48231185494252
N          -0.49900406862175   -2.34093440620226   -1.62160316616940
C          -4.60044073890616   -5.10229908122291   -1.38052036260184
C          -5.84880804175038   -4.65242923011946   -1.87923369526402
C          -6.98301880029737   -5.42595822887650   -1.84440845669334
C          -6.88713722089357   -6.69908071184524   -1.27396837325051
C          -5.63704608115696   -7.13967708607601   -0.77445312023268
C          -4.48719816505832   -6.36274417670319   -0.82104389204513
S          -5.74280644447069   -8.74191138989341   -0.11142716951828
C          -7.44016851122662   -8.79789119911618   -0.50672252050867
C          -7.90604561839700   -7.67561765324635   -1.10524769180673
Br         -8.43609909196682  -10.33085836902751   -0.09257052511273
C          -5.69861350858831   -3.28860607239478   -2.41138652844028
O          -6.47200362887989   -2.69126945514396   -3.12396502427252
C          -4.30777053293606   -2.87426053638692   -2.04577248691174
C          -3.81975461089682   -1.61602677506502   -2.18304141111643
C          -4.65210466051669   -0.47548005842855   -2.36772367956282
S          -4.09014486505437    0.94126137369453   -3.23293002397414
C          -5.90619164715262   -0.23146150603444   -1.86080771321356
C          -6.86554391062164   -0.90060650996256   -0.96303483165983
O          -6.79789784674135   -1.96532814038782   -0.39712943484598
N          -7.91937955528633   -0.00719272636857   -0.84547939735932
C          -9.09753074540989   -0.28307766153227   -0.06196070902779
C          -7.73669496608860    1.18389400591283   -1.54722401795732
O          -8.52827279980576    2.09222144233076   -1.58272296981547
C          -6.41673386848220    1.04362367729344   -2.17608639453955
C          -5.57279138709323    1.82824130724020   -2.93121962284305
C          -5.81172074698059    3.14810246488166   -3.39387224965126
C          -4.91946864681083    3.89289046291606   -4.08126247312331
C          -5.19079163987433    5.23137256046414   -4.50205511577941
C          -4.31918827928427    6.04180466971350   -5.12751601328648
C          -2.92419944483833    5.63971797248239   -5.49508641003644
C          -4.70241864294418    7.46157923414014   -5.45284859867181
N          -4.48297812494237    7.77998338007829   -6.84595050438737
C          -4.84656615480635    6.98401440388219   -7.86321855261221
C          -4.74771429153675    7.35065173880554   -9.17291869798984
C          -5.10857440997391    6.53167900775022  -10.25018613082555
C          -5.04266715485696    6.93533006712882  -11.56216223596323
C          -5.43184090436824    6.22543804893601  -12.71962584623585
C          -5.29909252194390    6.92937188549799  -13.88152547700704
C          -4.79109292003750    8.23307857397582  -13.69997786036984
S          -4.46553134543971    8.53541131253950  -12.01785689433224
C          -4.59399539906759    9.23426394858218  -14.63890609886898
C          -4.91828886945440    9.27572685291240  -16.00601090042408
C          -4.70592858425604   10.49917121613652  -16.57801493273604
C          -4.22157150029942   11.48711551696763  -15.69100889877501
S          -3.97097647526819   10.78483334842775  -14.12075023868217
C          -3.91354008159894   12.79791100124277  -16.03779826689581
C          -3.45845692514780   13.84345808668637  -15.24940055991078
C          -3.40041827010339   14.02416672601376  -13.87119577840906
C          -4.11976645908716   13.46431475804420  -12.77699966496952
C          -5.36656607603316   12.86529200932654  -12.81931337426722
C          -5.99978051133600   12.28593501957978  -11.70840056259859
N          -6.54248747509713   11.76338737945644  -10.83923777400088
C          -6.16322159151113   12.84477799260348  -13.97727269578374
N          -6.84550940729117   12.82275676417793  -14.90154419213725
C          -3.39363760764818   13.78673172829776  -11.54902276051125
C          -2.36352707767150   14.70377028082702  -11.86521626075210
C          -2.37606836480799   14.94303327697599  -13.32949720228600
O          -1.66541332040508   15.70488642773498  -13.95111490199959
C          -1.51638241430467   15.21619190980557  -10.91590135014073
C          -1.67918703080761   14.78197408658590   -9.59343527310135
C          -2.69687345564715   13.85072996349823   -9.29580997040363
C          -3.57027217539003   13.34750855609736  -10.25385085568029
S          -2.70153717082684   13.42840294820346   -7.60797016954056
C          -1.35551643038353   14.50316797509436   -7.33005888322404
C          -0.92475305057023   15.14272652819732   -8.44089402484336
Br         -0.64835906815785   14.66692306479645   -5.59751781282818
H          -7.91752366096352   -5.05528566436500   -2.23449446844375
H          -3.55961879771517   -6.74289389294235   -0.42666053279035
H          -8.92622759851995   -7.54051740864785   -1.41493718428198
H          -2.75739426094260   -1.42449116626929   -2.11017197495313
H          -9.46390729699329   -1.28196144511625   -0.29674724997289
H          -9.84762727814745    0.46524102173907   -0.31146442235882
H          -8.86749287326507   -0.23200208794281    1.00382901516554
H          -6.78554997365961    3.54622918627660   -3.13874503299756
H          -3.95138415940351    3.46862804051902   -4.31061752999427
H          -6.17920563457154    5.60486650087430   -4.26640574138535
H          -2.91549717565964    4.69794305453927   -6.03950046171428
H          -2.32161678022869    5.50877465080157   -4.59689186226591
H          -2.45471351592652    6.39896420021319   -6.11406233558861
H          -4.07910007314492    8.13877969996778   -4.85912523058794
H          -5.75051779356187    7.63943974220859   -5.17698875733273
H          -4.22007668692626    8.72776418918165   -7.07269388807744
H          -5.20672668832227    6.00314420664247   -7.58345201706111
H          -4.38775213511194    8.34416328966101   -9.40729160138705
H          -5.47899723464870    5.53572472094809  -10.04617250012360
H          -5.81133316829223    5.22030294445337  -12.65995648042576
H          -5.55696787809749    6.55234521185384  -14.85470950879283
H          -5.31987066877065    8.42457505794098  -16.52588767569218
H          -4.91706092574527   10.73085581248213  -17.60660308400274
H          -3.96937026025403   12.99754363758598  -17.10106157778569
H          -2.97999203100019   14.65376083942881  -15.79308541419748
H          -0.74596407628813   15.92373610813548  -11.17945439936592
H          -4.33460808916342   12.63965765863931   -9.98020973757203
H          -0.10710587539346   15.84025018814157   -8.45239864005130
