103
 SCF done       -184.709969994415          0.000668320916
C          -4.27661388209777   -2.04979802248654   -1.82702554110070
C          -4.25697926859028   -3.05054886343181   -0.88835272119589
C          -3.92046347818455   -4.39040129136528   -1.16460276501788
N          -3.65346796873784   -5.49477006943918   -1.33059889890126
C          -4.58185301601134   -2.86193534755212    0.46963309257161
N          -4.83644916783523   -2.75145092057127    1.58393931590757
C          -3.95359781208371   -2.20148094088540   -3.24451583597163
C          -4.11731980009345   -0.94768706748582   -3.88946757207279
C          -3.88754429910644   -0.76686128295627   -5.23197367168176
C          -3.47188279074336   -1.87615875340789   -5.97634508478964
C          -3.30666832120045   -3.12124148550078   -5.32517525830373
C          -3.54226816291392   -3.30412921030132   -3.96627917964050
S          -2.78146580233327   -4.35371178251177   -6.42969407628987
C          -2.79164090753130   -3.19581199634654   -7.73408173722814
C          -3.16907534071490   -1.94908687878448   -7.36338347468672
Br         -2.30265870616017   -3.74385845296785   -9.45961390425502
C          -4.54163884480627    0.04007008509053   -2.89353820511541
O          -4.78229704574372    1.23334032808090   -3.08696796677587
C          -4.62401625369732   -0.66550710343424   -1.61627713286201
C          -4.98056039943974   -0.01276021406954   -0.45448789660614
N          -5.25636921377094    1.29307856069656   -0.50315078970950
C          -5.61123987826959    2.13292421273581    0.49669915451034
S          -5.78844826670026    1.60588852857403    2.14068928386304
C          -6.19730569168855    3.23244022289374    2.58584778961651
N          -6.49300907828145    3.48760609544621    3.93191947703790
O          -6.78277011927045    4.62882202418150    4.23889506796389
O          -6.43809458034984    2.54059118421609    4.69596566474359
C          -6.19278287722343    4.11478348289394    1.53985494612182
C          -5.85796528838988    3.50561976243399    0.31410743364925
C          -5.78061831658491    4.13929192156541   -0.96746887304348
C          -5.87060555274122    5.47185697261151   -1.19008079289966
C          -5.81030404227131    6.11563382500789   -2.45365420470992
S          -5.59991123170975    7.84633790903560   -2.45848960900243
C          -5.62415361635933    7.91363340658341   -4.19939402144000
C          -5.77608174943321    6.63211568168565   -4.73156698962793
C          -5.89088705411582    5.63099038993461   -3.75776954382773
C          -6.11496728187152    4.19494391972019   -4.11792555744123
C          -6.47058608689162    4.02650942163858   -5.59170619995499
C          -5.48454024622761    4.83844569571786   -6.44246008031450
C          -5.68679502208692    4.46649214805420   -7.88353754582563
O          -5.00354970329496    3.69854138410421   -8.49980828165835
C          -5.74775333673764    6.32413905796474   -6.19796059391423
C          -5.49813952246215    9.17870121337512   -4.81253327699011
C          -5.82803950367846    9.49399181611217   -6.10178251106559
C          -5.67818666754950   10.76373635874314   -6.66878500689692
C          -6.11190831766165   11.07040127091218   -7.94036585848111
C          -5.99911940193873   12.29924624049134   -8.62590739384466
C          -6.55035625275537   12.29924791884908   -9.87597188586589
C          -7.13819449248093   11.07317282616625  -10.24146090471768
S          -6.94780113304246    9.90440894345492   -8.95342816210180
C          -7.81583990451148   10.75013196825747  -11.40533703854513
C          -8.05371837449806   11.55904829006674  -12.53580299542456
C          -8.78738239483259   10.94384667926518  -13.50618541232138
C          -9.17978508438517    9.61770040216807  -13.19936632375929
S          -8.54639155572863    9.17837108572089  -11.62097732089113
C          -9.95639613160312    8.80910597307898  -13.99111883317111
C         -10.41533577833563    7.50321597357871  -13.72593254524745
C         -11.29233153485282    6.79429915538438  -14.62296070155193
C         -11.58924735516785    5.56145544521579  -14.08330517341749
C         -12.40394297290679    4.50367240508232  -14.54819687022734
C         -12.50600459931800    3.38893833653467  -13.76328329887565
C         -13.23389743291096    2.16804717153438  -13.92767762675860
C         -12.99762010808899    1.35604808581074  -12.83486452845828
C         -12.10919272320483    2.04898937245160  -11.95069606558895
C         -11.80044115512030    3.28507589157120  -12.49634092354305
C         -10.98825887122232    4.33250615622116  -12.03186767393769
C         -10.88630782009423    5.46018690406363  -12.81518157760802
C         -10.17493849513485    6.67120577756527  -12.62939511961948
C         -13.56049064590115    0.04200813607165  -12.63822983174836
C         -13.34059053733808   -0.74501165488716  -11.58837127709700
H          -4.02018523499444    0.19754221650624   -5.69695991650999
H          -3.40125091518146   -4.27306967309347   -3.51745306488845
H          -3.23169579511738   -1.11420146862372   -8.03739215203670
H          -5.04470372500314   -0.50966788654257    0.50426446375907
H          -5.16489849578123    1.68700018087943   -1.45957465525620
H          -6.43389444168101    5.15366732883317    1.66885782904573
H          -5.61080587007386    3.48769796958259   -1.80623569813648
H          -5.96412383162637    6.14277167273076   -0.34674063318424
H          -6.92115195939106    3.78535961044824   -3.50425898413298
H          -5.20921853134278    3.61788737747555   -3.91033584645083
H          -7.48571131695839    4.38194690699294   -5.78092918387706
H          -6.42283407939140    2.96857371927937   -5.85435182454437
H          -4.46441885617412    4.57326172774835   -6.14829148710115
H          -6.57512605721559    4.94124458310317   -8.34811197976719
H          -6.71031110962202    6.58839373113551   -6.64992055593212
H          -4.97439626151331    6.92662089793311   -6.68102943379464
H          -5.15388590608218    9.97700324331672   -4.16668041691548
H          -6.27442733760281    8.74606349406772   -6.73874234200792
H          -5.20561673516805   11.54832626700057   -6.09373520590998
H          -5.51495052842366   13.14832202194534   -8.17649345978107
H          -6.55539843318573   13.15005318240407  -10.53368212821026
H          -7.68196711208149   12.56563371413924  -12.60386259514670
H          -9.06857282375377   11.40583238641364  -14.43646857304183
H         -10.27292269259817    9.24128649883388  -14.93308602744671
H         -11.65161290644467    7.18696051573724  -15.55776260131086
H         -12.92484727112540    4.58893612278972  -15.49168447459942
H         -13.86031959062842    1.93273946703906  -14.76870317956133
H         -11.74290994264800    1.66856848482140  -11.01492468009858
H         -10.46626934900386    4.24960738458932  -11.08921345743901
H          -9.55730646508223    6.88944416489532  -11.78004000604910
H         -14.21266994781455   -0.29741464998612  -13.43348458747513
H         -12.70084247679416   -0.45204596347774  -10.77369534917002
H         -13.79636573119140   -1.71656990942355  -11.50807887580085
