80
 SCF done       -168.012942969770          0.000861224015
C          -3.83096921821751    6.05063058860074    5.34603236383967
C          -4.42698517258596    7.26077617274936    5.06297733733532
C          -4.00807915153870    8.49263479529350    5.60364590642026
N          -3.71965688762277    9.53098962570535    6.00167389539799
C          -5.54742158342314    7.46225411073325    4.23532456333836
N          -6.46497346342004    7.71499447288100    3.58793156068588
C          -2.69894081875609    5.87420377230240    6.25139625287350
C          -2.42857137874934    4.49055929024279    6.36988336924563
C          -1.42822436509837    3.99451977399526    7.16743749308661
C          -0.64327485810929    4.91167204809741    7.87584464875904
C          -0.91448013678997    6.29335977177473    7.74552443289318
C          -1.93407166114308    6.79386346705271    6.94424517352727
S           0.17210296624757    7.25117204950380    8.70695109680194
C           0.96336996222699    5.80053236231748    9.26331025352694
C           0.44371273942642    4.65752099379981    8.75638698583776
Br          2.40074799704470    5.93168487816628   10.46172884866794
C          -3.39099666744813    3.72702945450437    5.54327431772428
O          -3.52081166455809    2.52274644166232    5.54822502819553
C          -4.19903421686385    4.74958764127214    4.83623013175241
C          -5.18757672269838    4.55210619034812    3.89605199968915
C          -5.53370263127972    3.38003800291744    3.20440857418311
C          -6.71240543087491    3.29504063902591    2.43376885145167
O          -7.07476093550933    2.13274924227599    1.81536403970434
C          -6.25532554960153    1.05492874567511    1.99439451992544
C          -5.04443070863327    1.16497194282168    2.73376764798398
C          -4.35724226241252   -0.00361857829134    2.79910603975026
S          -5.18906265489111   -1.25390786153963    1.95499585967468
C          -6.47169410909530   -0.19432632040497    1.51055038792573
O          -4.65945905478148    2.34075066464387    3.29384122123883
C          -7.61911001360849    4.35191661794951    2.24265843186387
C          -8.79121475124822    4.19273721135952    1.53224716817914
C          -9.70489003452843    5.21239815261423    1.30209570951872
C         -10.89408464485929    5.00613707562008    0.61870504262342
C         -11.90483351291108    5.94020161799057    0.31674518242966
C         -12.97105329376336    5.40985907175122   -0.36189726202269
C         -12.84050775971954    4.03458381534328   -0.61901405495150
S         -11.33216365619936    3.42799740386539    0.01061190209773
C         -13.70451933695362    3.14891845088516   -1.25812667199893
C         -14.96519857110411    3.35259791921337   -1.84504544048077
C         -15.51139942147917    2.21164722959135   -2.36745569276229
C         -14.70663311313197    1.05852008138171   -2.21516207946320
S         -13.22723786265537    1.48060498232033   -1.38773836344528
C         -15.02908625676993   -0.21559364329874   -2.64002604421401
C         -14.26769779759595   -1.38005667019059   -2.50261937650140
S         -14.90146962232670   -2.91429956042931   -3.09922817095964
C         -13.50598209921504   -3.85016801124170   -2.60771704084787
C         -12.58061830418554   -2.99399257941723   -2.00409773722395
C         -13.01333083267928   -1.64228445298573   -1.95359918623446
O         -12.07939651697773   -0.87476800627007   -1.36585639887048
C         -11.05989456102799   -1.70751130557443   -1.03917327297520
N          -9.94354206597827   -1.13183139196413   -0.40144381030916
O          -9.02155310418164   -1.87897670063758   -0.11855115377657
O          -9.96562610119191    0.06105877769671   -0.17497123258060
C         -11.29988233949380   -3.01142294881147   -1.39946372706469
C         -13.43143020174311   -5.23633967003841   -2.83004005189808
S         -12.03873193127381   -6.15309289119696   -2.33042264716466
C         -12.74019288657236   -7.62643347488900   -2.93859322031488
C         -12.08291832956486   -8.93465193480277   -2.86270364571836
O         -12.59767353822589   -9.93093033811329   -3.29747560687497
O         -10.86697179803680   -8.97530898059166   -2.28725116741936
C         -13.97992858827558   -7.39074689414759   -3.49148240050987
C         -14.37137021942217   -6.05744839481523   -3.43299356847703
H          -1.25432038595664    2.93249886821318    7.24205328352877
H          -2.10046265383929    7.85608594567887    6.88289841509817
H           0.80931955504872    3.67495781498405    8.99301089764299
H          -5.76402791204878    5.42113003136950    3.63204717864073
H          -3.42910027481113   -0.18870295406036    3.29697786723088
H          -7.29508466879461   -0.55788721327364    0.93086640985885
H          -7.40087912379934    5.32372656695539    2.65335444125104
H          -9.02012490126056    3.21056672468980    1.13797453209587
H          -9.49354001393103    6.20756739104041    1.66961680203772
H         -11.82348150421578    6.97304310554018    0.60593723083830
H         -13.83304430592105    5.97241098436642   -0.67327926767015
H         -15.43908623128570    4.31740461433073   -1.87076321580175
H         -16.46907597674776    2.16676492740275   -2.85516706059335
H         -15.98464021419567   -0.33506154706925   -3.13303897817056
H         -10.64105534019211   -3.84022190766097   -1.24347858586537
H         -10.56049037510719   -8.11227872995371   -1.97870083208780
H         -14.56495629555592   -8.18462980141245   -3.91850678344057
H         -15.30331867134984   -5.67571975738535   -3.80956954758200
