87
 SCF done       -191.667481824096          0.000785663748
C         -10.04540860875450    4.52770258116076    2.19482120557906
C         -11.16052413493792    4.11309094372361    1.51508446148951
C         -12.44557106631509    4.00675304554876    2.08913314553673
N         -13.51458688087705    3.90629119382400    2.49457909996505
C         -11.18598313124723    3.73029315689674    0.15719540829054
N         -11.28246105301868    3.39927636733819   -0.93798412289041
C          -9.98835815011296    4.87591759641859    3.60796754013829
C          -8.65087359384841    5.19674474431265    3.95005592059116
C          -8.27697659522237    5.56053420197587    5.22115662572459
C          -9.26853590468377    5.60160880798390    6.20617889382275
C         -10.60376325385624    5.28281776367891    5.85556468526807
C         -10.98252987856099    4.92135472151249    4.56918585315716
S         -11.66901740030272    5.40399507299104    7.22176637481163
C         -10.32694142558695    5.87105718687477    8.23264637158136
C          -9.14052873702494    5.93490839485409    7.58178077691926
Br        -10.61915848660213    6.23242349778350   10.04803987482875
C          -7.79360270705663    5.08767062603358    2.75847864528591
O          -6.63958629544404    5.43322034216925    2.66268796048455
C          -8.69799346512391    4.62402279738117    1.66063596243868
C          -8.31474828180770    4.48251306575141    0.36457370840559
C          -6.96044677565143    4.35497447392036   -0.04698423095009
O          -6.60341025013890    4.72041608744634   -1.30837108560366
C          -5.85475525340251    3.80754080178694    0.57527002516241
C          -5.39192828399382    3.09997886067621    1.78328767722770
O          -5.98561975658932    2.73509811522316    2.76177704580019
N          -4.04779062556991    2.86445591148685    1.52182211609673
C          -3.59301753495922    3.28450775471338    0.27105615546759
O          -2.47352495360926    3.15034913280148   -0.14087486922697
C          -4.78814853726343    3.87574578613409   -0.34518156118883
C          -5.28533759192193    4.45809081799015   -1.50061178092120
C          -4.63672188656532    4.78330581425897   -2.71811011686761
C          -5.27426283607784    5.35105028254779   -3.77111726804956
C          -4.65159612833570    5.71272724343515   -4.98752683835827
S          -2.93827697754678    5.50207013524630   -5.31347285185689
C          -3.03869599927388    6.20218916100915   -6.90293176575351
C          -4.35017578139184    6.57075831528425   -7.17302276842982
C          -5.23179377108956    6.29770020764910   -6.09944821285642
O          -6.46260810621920    6.71691815411296   -6.46905699341445
C          -6.27726234332166    7.21016413611655   -7.71659260183970
N          -5.07805715974592    7.15215017407172   -8.18193392098062
C          -1.90411993385431    6.41795268391663   -7.71535432095280
O          -2.08123932811002    7.01629896219490   -8.91164619605499
C          -0.55086015228670    6.19968867157217   -7.52901242239669
C           0.44942056799195    5.66689774000500   -6.60050274814365
O           0.32682164866855    5.14210422215677   -5.52616853018223
N           1.65685699159176    5.90460039010255   -7.25660184288928
C           1.55489641768837    6.53086216232174   -8.49690165921119
O           2.47835462242422    6.81773165998103   -9.20933977268538
C           0.10594335262036    6.72202647946016   -8.66869249477411
C          -0.87379327370057    7.23069719550735   -9.50186943834272
C          -0.84709281190703    7.96087618045771  -10.71934694684264
C          -2.01687035409661    8.36051560903739  -11.27878290864559
C          -2.15133553840958    9.20795531885693  -12.40211545816421
C          -3.32494322198164    9.77668616266085  -12.79377894179040
C          -4.62688198187569    9.76928355790578  -12.15370667137723
C          -4.88485837134342    9.74209514067809  -10.80739822247890
C          -6.18012709758116    9.69617499562245  -10.25550174470995
N          -7.20668431597735    9.61907057312088   -9.74660265810376
C          -3.90602645362939    9.86102220951329   -9.79434699112098
N          -3.17239074752190   10.04247387368183   -8.93119045921322
C          -5.61564779706542   10.00892635628993  -13.19962985001599
C          -4.94101462381832   10.39911568383202  -14.38562922200041
C          -3.48201628254693   10.34633962063501  -14.16040691549679
O          -2.59890128621531   10.64557442664670  -14.92838854314118
C          -5.61057923337068   10.74167334173878  -15.53535217140009
C          -7.00827412590942   10.68570630508144  -15.51924475643398
C          -7.67137764170928   10.28125740178758  -14.33500418677367
C          -6.99580055738480    9.94404849907351  -13.16885209701827
S          -9.39601116326567   10.27132114392895  -14.54011772108903
C          -9.20777052814703   10.80679724871111  -16.18909457846564
C          -7.91957374642403   10.98326875796639  -16.56882840181013
Br        -10.72809049183223   11.07929330581846  -17.25167759046080
H          -7.24952113966781    5.79721498725461    5.44770282751445
H         -12.01257062026037    4.69278577141319    4.35216603519486
H          -8.21255057965459    6.20583493791369    8.05114946507544
H          -9.04624236161463    4.45370501660544   -0.43224895897649
H          -3.44364050648518    2.39823501637071    2.18408060370644
H          -3.58096997880007    4.55721836960289   -2.76180826781293
H          -6.33385105345720    5.56233052417444   -3.70523515281520
H          -7.12234995243173    7.62422552769998   -8.23216892966135
H           2.54749261130308    5.64425317103827   -6.85681235935068
H           0.11908240425335    8.23538366384967  -11.11399675877097
H          -2.92631684453246    8.00624383507176  -10.81299178296548
H          -1.28670826718627    9.38748252651718  -13.03007584089708
H          -5.07319998814577   11.04330337462579  -16.42062213240093
H          -7.54161179415613    9.63767477900931  -12.29189365736092
H          -7.62258486450863   11.30932514117346  -17.54878317674778
