88
 SCF done       -169.552547140499          0.000761795213
C         -10.90213659242231   -1.31062057484160    1.61852307969887
C         -11.36220728687932   -1.46199962932946    0.33815593763411
C         -11.39796085194612   -2.69805677377790   -0.33962873521402
N         -11.44852521790829   -3.67943020682156   -0.93283137325209
C         -11.90752106989034   -0.41828923896321   -0.43709743470743
N         -12.36727151363876    0.39538100466969   -1.10462439556265
C         -10.39028360507866   -2.37449112720875    2.47477258722596
C         -10.28843873116754   -1.88288772640397    3.79941875692925
C          -9.82685872122942   -2.65482529916149    4.83793615920692
C          -9.36554778962667   -3.94020923724803    4.53816062273628
C          -9.43799726171723   -4.40985578580701    3.20461260677225
C          -9.96807495056400   -3.65415293210136    2.16649909475408
S          -8.76326093206401   -6.00352585407908    3.05236068085378
C          -8.37996889283162   -6.00729906583238    4.75272991961578
C          -8.75308390359339   -4.88275263728431    5.40806790096870
Br         -7.50395834191505   -7.48516130439202    5.49783317947091
C         -10.63722057549174   -0.44704109902291    3.81306256915622
O         -10.79316081258180    0.25659287834241    4.78745314705422
C         -10.81975777334059   -0.07893033313887    2.38674505962905
C         -10.76907069084545    1.17810922222717    1.87466508767268
C         -10.31661029827365    2.35597251817808    2.54436179794765
C         -10.86607609227794    3.61476020113120    2.33708299475385
C         -12.01807578134281    4.01868777519100    1.49523854089054
N         -10.22297159258318    4.48729542724148    3.15295927087916
C          -9.24751495058567    3.85401266570563    3.86580746547367
C          -8.35368650387104    4.59126961287113    4.79402313214637
C          -9.25508486680643    2.51682268564144    3.50926838069318
C          -8.32975938575045    1.53507909974662    3.99226726911208
C          -8.00588604807510    0.40321610757499    3.32595929159962
C          -7.28921768396048   -0.73370635835149    3.79822850036709
C          -7.12319842045663   -1.11630409608592    5.11350703943513
O          -6.35987602506251   -2.22376709189793    5.46635897287909
C          -6.00937255577188   -3.04252693005034    4.43939624561816
C          -6.27649786302713   -2.70255640604065    3.08209062212639
C          -5.88504164256683   -3.66479735783049    2.20988187251687
S          -5.16697329718561   -4.99796786073332    3.03332687989468
C          -5.41424370891088   -4.25399675157580    4.57018983517019
O          -6.85681713006838   -1.51925674337581    2.74137999589833
C          -7.79142459906315   -0.51602240203132    6.20558230770479
C          -7.52398077837888   -0.80817825608323    7.51688658568781
C          -8.29125657969633   -0.30700809259912    8.57209213344565
C          -8.04186077815661   -0.53890121562989    9.90556239415345
C          -8.80046549897360   -0.07192050439526   11.00273664557984
C          -8.31264481778383   -0.44170023730509   12.22087178371993
C          -7.13531935143435   -1.21766935922423   12.15308876313880
S          -6.67550826081936   -1.47876638468188   10.48589604868461
C          -6.39018002371694   -1.71581277728440   13.20584703265312
C          -6.64699491479585   -1.58144301857670   14.58775143743204
C          -5.71032632669342   -2.16686717309883   15.38278378008702
C          -4.65509506935041   -2.79633520282285   14.67406150025752
S          -4.91292316025891   -2.62495039014200   12.94772204774071
C          -3.58213334042962   -3.43454375896323   15.23759787180981
C          -2.51016843805344   -4.05337596684884   14.57270755796396
S          -2.31811288031434   -4.16457544978759   12.83021562187496
C          -0.82653400765932   -5.01511017059523   12.92188943745714
C          -0.46520129783247   -5.22016719022639   14.23293775654277
C          -1.41626004803012   -4.67804167515136   15.14897730853919
O          -1.03459522517911   -4.89067631832065   16.42600952565521
C           0.14647272531326   -5.56061442976845   16.33638260526398
N           0.79042247887325   -5.91930242517001   17.54224296960141
O           1.84794870483111   -6.51382055690217   17.43605756895226
O           0.25587220081094   -5.61534015171939   18.58749055664524
C           0.54904350590671   -5.79312240108483   15.04786135990219
H          -9.77944444242553   -2.26827406935386    5.84368364661015
H         -10.00992928994207   -4.05392049646303    1.16685373147155
H          -8.58753527701401   -4.71217303962453    6.45613255193560
H         -11.06103143428398    1.32368115004362    0.84091460393658
H         -12.95834039426753    3.86078486912004    2.02532823135503
H         -12.05055453858340    3.42509968726409    0.58423024028911
H         -11.94782190787849    5.07203212965223    1.23087275897589
H         -10.44415339738578    5.46769059227251    3.23056713624242
H          -8.79486326268535    5.54702254850706    5.06957709185261
H          -7.38353057161496    4.78050305394209    4.33290984849472
H          -8.18519693047143    4.00998022035889    5.69785205771893
H          -7.87162403092537    1.75207016835154    4.94637089312296
H          -8.29171699113884    0.31344093002039    2.28619476206597
H          -5.96702541715741   -3.66178094622868    1.14333031827927
H          -5.10229558674192   -4.74332785321881    5.46903069615744
H          -8.61205777201343    0.14464461764203    5.97176889428498
H          -6.68223788253033   -1.44402673182735    7.75642111616196
H          -9.15142899795723    0.30425953635288    8.32935869631329
H          -9.68459963029806    0.52352275835941   10.85702706677736
H          -8.76298625197942   -0.17314734752845   13.15937857897610
H          -7.51085147761773   -1.05888340731418   14.95727193844610
H          -5.73550104163994   -2.16684540688433   16.45796183128234
H          -3.53259583958524   -3.47041693757097   16.31800271069411
H          -0.32015219006300   -5.30468226298878   12.02523917844668
H           1.44265969854112   -6.30098903131328   14.75023626193798
