107
 SCF done       -202.093429411635          0.000754605235
C         -10.32104992418467   -0.50300560172851   -3.29777787123132
C         -11.42033644415650    0.31511463907064   -3.32040650765824
C         -12.72657970040872   -0.10268159667467   -2.98753588099923
N         -13.80925252217105   -0.37725684693775   -2.72333380525214
C         -11.40792139148978    1.68517680555180   -3.65623084918127
N         -11.47895175249377    2.80090648287641   -3.91861795446564
C         -10.32382627432477   -1.92189546254087   -2.96389008522552
C          -8.99191248789674   -2.40561957173174   -2.98773657267656
C          -8.67316963324981   -3.71548606421533   -2.72483000880509
C          -9.72090942974810   -4.59694726958514   -2.44040093261310
C         -11.04938845404764   -4.10609159984047   -2.41907820190312
C         -11.37029428926717   -2.77898003904930   -2.67286800650436
S         -12.18917201103661   -5.36355542916146   -2.04797468955715
C         -10.88598715342003   -6.51607203023032   -1.93176635517774
C          -9.65892297782525   -5.98836797046712   -2.15658312254503
Br        -11.26813843548774   -8.30525540675154   -1.52422822102301
C          -8.07574900783393   -1.30432375313971   -3.32751107388342
O          -6.87105762577036   -1.30310308183332   -3.23085564848340
C          -8.95744726949761   -0.13763610748419   -3.63996458821474
C          -8.51083808993814    1.06556517877577   -4.08756720274399
C          -7.23321171731093    1.25878152793038   -4.67665405793782
O          -6.68430048869175    2.50666141888057   -4.69799508457395
C          -6.41095039734485    0.41266754370329   -5.39511209500840
C          -6.29814236532259   -0.93775966834951   -5.97049650965833
O          -7.05016148757570   -1.87574093349818   -5.94406198495632
N          -5.09339145116749   -0.89498198903438   -6.66259119660883
C          -4.43996280968716    0.33821390497633   -6.65487976422090
O          -3.41115149201788    0.58052818113020   -7.22896527586632
C          -5.31455350083937    1.18344048542644   -5.83924818138364
C          -5.51330439961345    2.47482785154125   -5.38017162704227
C          -4.70544535971496    3.63163465742392   -5.55675711871937
C          -5.06870645207586    4.86072411875226   -5.14073694699569
C          -4.29492977253130    6.08161552786381   -5.21659603465857
C          -4.27490867121357    6.83254973757839   -4.07061460986601
S          -3.22952899053836    8.18246832442690   -4.10652843487585
C          -2.84856021174575    7.82949132929828   -5.76432945418738
C          -3.48544853554451    6.67857069274256   -6.26203030578309
C          -3.34762109349027    6.38714901628803   -7.64460943588303
C          -4.03554308033558    5.18182781145171   -8.23241773887882
C          -3.05553923464079    4.01424961179337   -8.40834685662927
C          -2.58197043854380    7.20660475330188   -8.46508202100975
C          -2.53736624834491    7.00357474666477   -9.95479578153788
C          -3.60705773762990    7.87007760716795  -10.62594987447731
C          -1.88963271439625    8.31955497983956   -7.93263791366308
C          -0.98332257153109    9.25696437745371   -8.55168745141703
C          -0.50548828757283   10.16381639295072   -7.65732722742093
S          -1.11486641431309    9.98977618367375   -6.05786936071608
C          -2.03211069798077    8.60776759861422   -6.56699225559001
C          -0.53735850455143    9.32091652889571   -9.94180202395540
C           0.74907547134373    9.42060007034001  -10.26689217108886
C           1.24099877577305    9.49776118735144  -11.66557895323380
O           2.44239975000919   10.26090799454809  -11.82277567930029
C           3.16659904162045    9.14661153128301  -12.33208864475709
C           1.96866885956412    8.20003889231818  -12.16055469639675
C           1.41940877074507    7.57193761968263  -13.37331364919107
C           0.89993224720588    6.33434556506685  -13.40292890890931
C           0.44449989275788    5.64309340257184  -14.56860236096439
C           0.00556210846260    6.09337639727529  -15.77113517973540
C          -0.40952945501109    7.38659484963381  -16.27901089128262
C          -1.00059327330653    8.39672465195643  -15.56711648336744
C          -1.48433847336244    9.59003519015266  -16.14359414430164
N          -1.88295107787581   10.58163715082220  -16.56136377535110
C          -1.25984653825192    8.33255989880675  -14.18664316424736
N          -1.50590788974689    8.32902488534435  -13.06520757554318
C          -0.32639460230069    7.32929666577704  -17.73405173671685
C          -0.11068716263747    5.98432468375667  -18.12745694681549
C           0.01168653456391    5.14146108455273  -16.92338836101351
O           0.13747722713281    3.94143183904110  -16.86428982323077
C          -0.02331241396750    5.60645652477092  -19.44550859479154
C          -0.14185904498636    6.60363478832097  -20.41933982935853
C          -0.34155930234048    7.94641932651415  -20.01526736422499
C          -0.43905252682555    8.32784265661537  -18.68306298258660
S          -0.44623981993509    9.01566570152111  -21.37993462696179
C          -0.22895483532975    7.66473168669881  -22.46058187679757
C          -0.08303595258157    6.47290187437477  -21.83350873311583
Br         -0.21113994038687    7.95582589699476  -24.31264489181996
H          -7.64858179133096   -4.05039588443200   -2.75288421311481
H         -12.39722958106814   -2.45519321410892   -2.64371984210064
H          -8.74678969594335   -6.55572534117051   -2.12537036384581
H          -9.13849647473046    1.94559740203646   -4.04467910799830
H          -4.73275058850395   -1.69322311008029   -7.16591551759521
H          -3.76985538646080    3.44906900552541   -6.05740018957421
H          -5.99250461289911    4.94857324092301   -4.58022088409157
H          -4.79534931093209    6.60413545497020   -3.15999123265687
H          -4.47465269537756    5.43416070817480   -9.19741693814382
H          -4.85430427820215    4.88270047424874   -7.58285109144322
H          -2.40587447997316    4.16968225118072   -9.26550333080811
H          -3.59001186018163    3.07912336416886   -8.55458074996542
H          -2.41196688539182    3.91275059114457   -7.53769491190105
H          -2.70307061078961    5.96545050320244  -10.22753152922735
H          -1.55347304028257    7.28108466426465  -10.33103527698189
H          -4.60365079828023    7.53081310359820  -10.35107053783301
H          -3.50332259115359    7.81867579970168  -11.70639147206238
H          -3.51257794428112    8.90827810237633  -10.31703454999521
H           0.16934777312322   10.97016078008990   -7.86924972630039
H          -1.28625645431311    9.33206111411457  -10.71967911277129
H           1.52113927451839    9.40369906869821   -9.50983324825714
H           0.45435615581573    9.84060855852895  -12.34574400268302
H           4.04113461390083    8.91102310043649  -11.71999190489766
H           3.47906898397265    9.30814220455232  -13.36886423820476
H           2.08893612352919    7.47354587836932  -11.35656515566991
H           1.48251259789394    8.16010024825393  -14.28020477508650
H           0.91010622472940    5.74731860072618  -12.49358497823239
H           0.54122309103923    4.56113211495426  -14.52169975672472
H           0.13226733000951    4.57437024832827  -19.71753769615797
H          -0.58409671154034    9.36320485808353  -18.42224372148886
H           0.06101725352543    5.53934649908839  -22.34589369738286
