84
 SCF done       -174.240967431867          0.000965811796
C         -12.77433386450512    3.88802488679763  -10.01883402772204
C         -13.60055752245349    2.83963137412199   -9.70994061501312
C         -13.69627514517672    1.65607369396117  -10.47197451458696
N         -13.81447885890841    0.67021910709665  -11.04725767477788
C         -14.47505193687410    2.80769155501445   -8.60430081862371
N         -15.20668357297683    2.73281322446670   -7.72227138092773
C         -11.91811297390114    3.97999070454327  -11.19453194235469
C         -11.29492113946086    5.25287919357394  -11.20681696093436
C         -10.42654810757847    5.64526192367970  -12.19650590929847
C         -10.15918207787379    4.73752423551831  -13.22615129754852
C         -10.78396699219969    3.46678757977815  -13.20589826212897
C         -11.66301015374159    3.07147030758844  -12.20475453789900
S         -10.30883141848564    2.49990553033030  -14.56762661830148
C          -9.29253026579924    3.79571882095653  -15.13968746014186
C          -9.30749386512846    4.89833611831862  -14.35194587086219
Br         -8.30264890205767    3.57117337391949  -16.71613576008451
C         -11.72302595167856    6.01591039161996  -10.02617089282353
O         -11.32597008274156    7.11766423715485   -9.68908206726384
C         -12.64321286983292    5.13427442493068   -9.28592840433780
C         -13.12903792145044    5.38492241047338   -8.03264704601621
N         -13.12739494801076    6.57781935351729   -7.39958188669224
C         -13.13708987341421    7.82620371156726   -7.97414139781706
S         -14.01819145970611    8.11244462837170   -9.44053846394250
C         -13.69819394585926    9.80372464386222   -9.28437963383626
N         -14.16524510818103   10.65354139513945  -10.30109336209276
O         -13.94202196220832   11.84170792967651  -10.18955857571498
O         -14.76479527790045   10.12359369939916  -11.21830816644746
C         -12.98531282903974   10.12507150415531   -8.16355834895613
C         -12.64259629507696    8.99322254077723   -7.39148880125124
C         -11.85600657938572    9.10749527209380   -6.19068338301139
C         -11.19799368884375    8.12103016974008   -5.54895184154444
C         -10.45687726101570    8.29782158812280   -4.33922677646545
O         -10.31778339301527    7.21877525188807   -3.51902182742592
C          -9.73299015453756    7.60391890312401   -2.40515134884927
C          -9.45732448796793    8.95859386087932   -2.43645132903893
N          -8.96007115270181    9.64808961709977   -1.31390095328572
O          -8.38878010246341    8.99315024189150   -0.46884653017795
O          -9.17226577010114   10.85334740792903   -1.22727672933989
C          -9.89029377135311    9.42303317221308   -3.72754173776656
N          -9.76296581290778   10.64109681274347   -4.31926676683581
N          -8.96276767068167   11.62744051085468   -3.75750442079399
C          -8.39855423004556   12.65437723078974   -4.43001283034806
S          -7.97563219370004   14.04209175178123   -3.46471158488115
C          -7.10254935420225   14.70654452875736   -4.81264696803283
N          -6.45880419987379   15.92942113440728   -4.63392836426894
O          -5.84257668716582   16.39316967200159   -5.57768087468753
O          -6.56693115996544   16.45085731615350   -3.53453084391383
C          -7.15190394360735   13.90782461577803   -5.92312124037413
C          -7.91636823395562   12.74003943341998   -5.74402443139671
C          -8.03843207037365   11.77898015249180   -6.82320936425532
C          -9.17888184879167   11.21907291786942   -7.28894489178512
C          -9.29053509762596   10.26011363192158   -8.33172452874932
C          -8.31543133292702    9.70210189152652   -9.11027180483378
C          -8.56988616880334    8.72684067489459  -10.11878559407788
C          -7.47479843265812    8.32985385353241  -10.81154481135709
C          -6.27113235848653    8.96254176928441  -10.40519534820735
S          -6.59644090911980   10.06379781725084   -9.07772549400374
C          -5.01203130975639    8.80642505624658  -10.92592017398753
C          -4.62267266481580    7.96777523751742  -12.01132964861842
C          -3.31065276627701    8.03140087276017  -12.32061178505212
C          -2.54933552235210    8.92992285224990  -11.49852131822761
S          -3.62455611276520    9.67949193629271  -10.30753621394893
C          -1.24005495007538    9.19951013297529  -11.57409119904196
H          -9.97245899304756    6.62364106904875  -12.18271542525060
H         -12.11170985519535    2.09273065886615  -12.23318208289974
H          -8.74372761287315    5.78941692016274  -14.55967179987177
H         -13.52382823290355    4.56985595437138   -7.44034397980667
H         -13.24997190891829    6.56660292825573   -6.39324914282948
H         -12.70667786491110   11.13634382549303   -7.92701176389882
H         -11.81598151928759   10.10829131944656   -5.78616539612883
H         -11.22018600929120    7.10241696036737   -5.90573447172756
H          -9.56935252352007    6.89074152200861   -1.62118841888984
H          -9.74661577305975   10.63920078776595   -5.33836545869257
H          -9.11683632209011   11.73756619763766   -2.74669672749945
H          -6.66110172856861   14.16496487341186   -6.84444906047554
H          -7.10715959959869   11.57863046162292   -7.33217859927189
H         -10.12780419985857   11.56022060141732   -6.88599038917751
H         -10.29195243389750    9.91248564100282   -8.54865843919766
H          -9.56663901852034    8.35195187003297  -10.26751209729901
H          -7.48440416556074    7.60210052869566  -11.60370806314738
H          -5.33735506178391    7.34872006052092  -12.52428044436510
H          -2.83531633608928    7.47546289209827  -13.10918678785287
H          -0.62301696269651    8.72269006534745  -12.31512342630571
H          -0.76614716430364    9.89512507365180  -10.90605436829973
