84
 SCF done       -182.297189756074          0.000526547175
C          -2.54209695019641    2.36165935975361   -0.74612550757732
C          -2.79199896212321    1.28095293455183    0.06406478917458
C          -1.79686218849044    0.39869375294563    0.53313198164305
N          -1.04436902555207   -0.37532199919324    0.92345490879932
C          -4.05555370903506    0.91462384527488    0.56539770887555
N          -5.04775273711527    0.57041979515518    1.03429444891755
C          -1.22308374317750    2.84157450641829   -1.14132575476936
C          -1.37388087039173    4.06303970043399   -1.84688814690807
C          -0.30384401145288    4.80338025091653   -2.28611384082181
C           0.97808884983387    4.30958587423510   -2.02595325374064
C           1.11863910815788    3.08399941484122   -1.33169002261750
C           0.03660583163146    2.33780907666915   -0.88252607890612
S           2.78815526219163    2.66678983977855   -1.10503969927160
C           3.26899064466099    4.12452683243740   -1.93166275189857
C           2.23398961358841    4.88643523699937   -2.35796637167178
Br          5.09121733285295    4.50112109654358   -2.15840149043814
C          -2.80460408499105    4.39895995752273   -1.94203754589501
O          -3.29114006852050    5.39597809933143   -2.44015299047651
C          -3.51925283876941    3.28437935375234   -1.27731202773226
C          -4.88606299584296    3.16541160770888   -1.20789620867736
C          -5.79904930759544    4.12799933203875   -1.64708309857279
C          -7.15211220629315    4.00568569139746   -1.43144028586153
C          -8.14356338739167    4.99527467126760   -1.64910330430086
C          -9.37520637998475    4.66419686198052   -1.17340664953690
C          -9.42383187620448    3.38349898168285   -0.57494075433700
S          -7.86811558762998    2.58771662373857   -0.69518215233503
C         -10.46196472945092    2.79092355360587    0.10961101876667
C         -11.71311961947776    3.33600232968777    0.48909066881547
C         -12.44635864785066    2.52882691448981    1.29633884827317
C         -11.83344447368352    1.27509461895671    1.59873184394369
S         -10.29199870715182    1.16868299001054    0.74329225499934
C         -12.37928221088787    0.29470580703188    2.36542110432937
C         -11.84388315911314   -1.00913367636107    2.66029149512098
C         -12.66753303310798   -2.11907921495512    2.64685971237408
C         -14.11337270581735   -2.13133289558205    2.31691719597411
F         -14.37845807098187   -1.56428013448928    1.12154006413674
F         -14.62016385456101   -3.36638915356370    2.27623270262774
F         -14.85830469960326   -1.44163569798518    3.20792874076119
S         -11.83953515851533   -3.59915556437103    2.93803638415289
C         -10.34429313244319   -2.74041989166601    3.11889501449193
O          -9.17995783885088   -3.36267150891720    3.30919726823678
C          -9.21675072090322   -4.74622456302295    3.59169878598138
C         -10.49546267925814   -1.37268170603449    2.99449903525016
N          -9.50059473067482   -0.44169637066620    3.23508494831606
C          -8.41733083074840   -0.53374844105142    4.03788152497780
S          -8.18295233733753   -1.80955866088207    5.17565407735754
C          -6.68872155308884   -1.08178476846535    5.68112850809854
N          -5.97051188307500   -1.74808516155397    6.67082859240845
O          -4.93138461861089   -1.25096419898085    7.06503492827771
O          -6.45276707752681   -2.79594983124570    7.07841717381512
C          -6.39284979859293    0.07115106343350    5.00506957381506
C          -7.38457430151022    0.42461172363491    4.07420605527392
C          -7.37481388410703    1.63496130828512    3.30056084110544
C          -6.27639107672709    2.37308673990205    3.05204271455748
C          -6.29316270729336    3.62504657695102    2.37373630385106
S          -7.75084060756842    4.56167279971949    2.10270653516163
C          -6.93248345565267    5.85539424728305    1.32338195752567
C          -5.58443207718782    5.60555658520063    1.26944247523555
C          -5.23993366576208    4.34848535751072    1.86671491074101
O          -3.90498506533645    4.13717434520039    1.79943239437757
C          -3.40137466467704    5.24265256339571    1.18209497963631
N          -2.00439001613505    5.28820652694255    0.98043216813112
O          -1.54785351398428    6.30768979410166    0.50055742867705
O          -1.35828527280407    4.30278191736321    1.27844691813024
C          -4.35044612368450    6.16295724306667    0.83222860339075
H          -0.45252809475861    5.74274605122113   -2.79446460233597
H           0.19512605858266    1.42003189527626   -0.34224276393116
H           2.34844570143065    5.81838177819670   -2.88076084618806
H          -5.30374657099555    2.27634058234117   -0.75054355072215
H          -5.42877954821107    5.02906155676528   -2.11403731352347
H          -7.90030348125815    5.92924030565287   -2.12354738653115
H         -10.24025827815753    5.30033865556816   -1.22644193376472
H         -12.01810673128353    4.31713373970341    0.17342662466002
H         -13.41003877563004    2.78171095985756    1.70030720659784
H         -13.38795515852148    0.47320004111985    2.71422628090374
H          -8.18284300178784   -5.04820775220660    3.74082129822525
H          -9.65241952677195   -5.29945132660258    2.75426398474948
H          -9.79425916620405   -4.94553800034587    4.49818482973526
H          -9.57614079504432    0.42417537473678    2.71356240057635
H          -5.50229135863111    0.63913001921573    5.19917190215438
H          -8.32228638673071    1.99074773823190    2.91313831018614
H          -5.29667605324131    2.02771275132739    3.34558104380781
H          -7.48276859149888    6.70245953058946    0.97123323075722
H          -4.17041324978266    7.09013183624565    0.32904963190600
