100
 SCF done       -194.607476287985          0.000811742420
C          -9.35491507094041   16.61624830009808   -4.78568747504790
C          -9.04339906737098   17.30869761079557   -5.92772593407292
C          -8.10225246176994   16.90066512427784   -6.89542410261433
N          -7.35394717113532   16.63419451817994   -7.72488590640789
C          -9.63878931477806   18.53250276959306   -6.30077436327738
N         -10.08970492213554   19.52292645780406   -6.66633728575838
C         -10.30770121581250   17.03887540359239   -3.76810423174213
C         -10.35972215489335   16.05666691578950   -2.74745416644561
C         -11.17198672471466   16.17406395626255   -1.64591376769383
C         -11.96389388215484   17.32187941456866   -1.53834247260060
C         -11.90526484282244   18.29928258145334   -2.56193045895080
C         -11.09007593496776   18.17661833297043   -3.67960881816999
S         -12.96658866749152   19.63416032562784   -2.23224215812292
C         -13.46656909286355   18.87466714120729   -0.74431374387080
C         -12.87108978002597   17.68162211448583   -0.50508806612812
Br        -14.72864833624818   19.72590185656647    0.34922187468431
C          -9.44556277931933   14.95085180716811   -3.07929715081900
O          -9.36774991284056   13.88099932831668   -2.52210652301540
C          -8.76696602115790   15.36378185344429   -4.34522759904002
C          -7.85797041271710   14.60397334275111   -5.01191018966616
C          -7.14699135793669   13.51839977775179   -4.43450625005999
O          -6.65397006577108   12.54531159816156   -5.25110656009553
C          -6.72418492759427   13.25579471301666   -3.14580206295246
C          -6.66916880902177   13.78901872983756   -1.77395725342332
O          -7.06844263625976   14.82229519469596   -1.30891888565385
N          -5.95046449271019   12.82050035219930   -1.08014314169750
C          -5.48381862255598   11.75324030640767   -1.84571934631636
O          -4.83101080377542   10.83293846404604   -1.43198020907605
C          -5.97173195289645   12.06140903740964   -3.19511847387001
C          -5.95600387395497   11.64443067494082   -4.51449866527892
C          -5.35724139728947   10.50604951048439   -5.12077420667157
C          -5.42850874505858   10.25376955227785   -6.44652263090575
C          -4.84005548887048    9.10315441168705   -7.05611439861726
C          -4.89435338050731    8.77417985163908   -8.35926243833056
C          -5.55390843232343    9.57670823465136   -9.43121173362049
C          -4.23032246593254    7.50480760779089   -8.84809928287063
N          -3.07097755556106    7.79366404620260   -9.66035651071743
C          -3.13109529672883    8.00875093262685  -10.98454281428262
C          -2.11891484209380    8.53243812461890  -11.73494614718481
C          -2.22892373751700    8.72818911080213  -13.11809908933819
C          -1.24355500333077    9.24181550703060  -13.92436419756816
C          -1.33445238176141    9.51245280218471  -15.30872271290223
C          -0.19552693166702   10.02255364985196  -15.85565860521938
C           0.86468318106863   10.16545816274790  -14.93309287596619
S           0.36590139540632    9.66000302328870  -13.34359448566103
C           2.15434756811280   10.59916255351697  -15.19545084742223
C           2.70201318952623   11.03043751363551  -16.41823153499541
C           4.03573913003812   11.31215727355783  -16.34950665811373
C           4.61839212240682   11.08068637055200  -15.08292645560603
S           3.39006047811574   10.58119645616450  -13.95506457727230
C           5.95818406944337   11.29251966118278  -14.78094638896335
C           6.67311894210427   11.02721603846221  -13.62359107157551
C           6.40687720986305   10.24428806574090  -12.50642579318056
C           7.13134599585439   10.55828339251967  -11.25538260366932
O           8.04330557141304   11.34586363396390  -11.11270923927372
C           6.48498714131677    9.73819568890582  -10.20455394730973
C           6.72452487898234    9.70722848546222   -8.86329607526540
C           5.94967945145157    8.84925604905088   -8.04708714922813
C           4.93969317759236    8.04350718716423   -8.64547932446500
C           4.16367207068270    7.20029226451452   -7.82668159705639
C           4.38215187468830    7.15537404767046   -6.47810759721146
C           5.38436018013786    7.94714226440134   -5.88859197093876
C           6.15314834554857    8.77757088416432   -6.65613651766300
F           5.57903408216267    7.88257173744359   -4.56093163905205
F           3.63392106319948    6.35212625865302   -5.70217214380952
C           4.72659860898545    8.08725886154060  -10.04412662570658
C           5.49262963839489    8.91935900908842  -10.81180967061014
C           5.53046292367274    9.14860330316326  -12.25712709371329
C           4.95194943480431    8.31349164991528  -13.19636155097506
C           5.29473469855822    8.33620588481120  -14.55902900527990
N           5.57045666832748    8.30951497271351  -15.67441276069283
C           4.03295971476029    7.29642501887165  -12.89038949063842
N           3.24037745276188    6.48351523503576  -12.70722913411408
H         -11.18747759348898   15.40776611547799   -0.88730399478120
H         -11.08429183368861   18.94692489789037   -4.43251601164512
H         -13.06278858115334   17.07908807257445    0.36387193983520
H          -7.62049665407899   14.80689788677024   -6.04770741816344
H          -5.75587252691528   12.90014807699672   -0.09189444936184
H          -4.83596134889387    9.84540856123719   -4.44347251126770
H          -5.96603923313060   10.95458042167212   -7.06805290642652
H          -4.32393172615761    8.43585129764704   -6.37667350457860
H          -4.84844260990904    9.77460989548818  -10.23932451437228
H          -5.92887283969122   10.52620726247492   -9.06720422873912
H          -6.38811041597264    9.01502045977674   -9.85321195327624
H          -4.93504216312391    6.93015235150082   -9.45660503108714
H          -3.91630925139115    6.88874093026659   -8.00223430240276
H          -2.25719085061314    8.14141180286854   -9.17266772485580
H          -4.04804854318467    7.69198511892710  -11.46488365284065
H          -1.19340634944901    8.82092234575736  -11.25554366699272
H          -3.16659482971368    8.47118947250139  -13.59476192186908
H          -2.23977218177165    9.32273103334383  -15.85827764717255
H          -0.08406157303580   10.28354365903850  -16.89216841970527
H           2.11169722764655   11.11451823958255  -17.31253562898760
H           4.62968238958856   11.64129477707890  -17.18307792213925
H           6.50736396937079   11.80076754912065  -15.56464383002060
H           7.60762234842948   11.57407654002918  -13.52734381168177
H           7.49297307336135   10.32673439471400   -8.42649231584154
H           3.39568505269125    6.58145221103326   -8.26407193980407
H           6.91758817294819    9.37864499936238   -6.18916829076141
H           3.95788957771889    7.46298933289864  -10.47056036158052
