86
 SCF done       -155.095304146590          0.000493771216
C          -3.22681169751857    1.16706867342561   -2.04516820398992
C          -2.08803147258441    1.91014567781192   -2.25185039048776
C          -0.83649444080127    1.35872666766537   -2.59000939174605
N           0.20984524834043    0.97434296262647   -2.86851305405685
C          -1.99050505927418    3.31212826786562   -2.15500669729285
N          -1.82183786932716    4.44761323350476   -2.09249451667591
C          -3.30719567675449   -0.28859841871862   -2.14136446028882
C          -4.63209384688359   -0.69062922192569   -1.84161232761576
C          -5.03159971021436   -2.00370736523629   -1.85046656626176
C          -4.07528066537166   -2.97310424610714   -2.17368117976134
C          -2.75495469367298   -2.56428091611199   -2.47163765229808
C          -2.35129959694453   -1.23388475082317   -2.46074072660470
S          -1.73523958962617   -3.92109118133109   -2.84580640224847
C          -3.08009483511637   -5.00358929729502   -2.60088858652951
C          -4.23322978661294   -4.38388729891100   -2.25587527236370
Br         -2.83491456834600   -6.85020472826618   -2.82400225930260
C          -5.43932914023433    0.50719060174597   -1.54497636872377
O          -6.62090048289211    0.52084718738238   -1.23885330045318
C          -4.54164055912292    1.65112272560151   -1.69405231096959
C          -4.90921130131600    2.97030557342687   -1.54403614412964
C          -6.14785707512174    3.52254717195172   -1.22314107134925
S          -7.66074694504369    2.69727619731821   -0.86861058736806
C          -8.53050896343642    4.18418481122878   -0.62485148115186
C          -7.68745997719636    5.28379046209603   -0.81343931113193
C          -6.36878484634746    4.90002683325439   -1.13822146448505
S          -5.37669205302472    6.29648552197468   -1.34535095635833
C          -6.80189434986177    7.26148886886805   -0.98182279120858
N          -7.88366309326324    6.62923775157066   -0.73707802747855
C          -9.90164355528786    4.17488458370986   -0.28443437642946
C         -10.64339776848920    5.30283995980630   -0.14537279707518
C         -12.01912295367997    5.28370481531108    0.22182569404867
C         -12.83346544438769    6.35071934388281    0.34762955611883
C         -12.46268217097378    7.76364242321456    0.04256184044716
C         -14.27988916872843    6.14989873207543    0.73097527547396
N         -15.11975214082848    6.16032460573654   -0.44872803635400
C         -15.61663607288303    7.29530876980005   -0.98749671064680
C         -16.10897376826702    7.38962187939983   -2.25284925046308
C         -16.68745685119882    8.55797705181857   -2.77533762760376
C         -17.22564406604815    8.66606367545930   -4.03231643857890
C         -17.79208193196042    9.81585577590579   -4.62949473606461
C         -18.26019205624866    9.62236109995788   -5.89492077614707
C         -18.09889512973250    8.30382110769734   -6.37077756025773
S         -17.31370386893397    7.31473008516548   -5.15967502118673
C         -18.49233415503039    7.78879517704120   -7.59199242293874
C         -19.11403060087946    8.45304224732238   -8.66683577151551
C         -19.39157662127174    7.64771047598975   -9.73213173224234
C         -19.01293526158337    6.29426788281929   -9.56817336164709
S         -18.26790659676051    6.09604190320453   -7.99057976618030
C         -19.22407156387803    5.31043631098051  -10.50617567744760
C         -18.93877971585814    3.94231772625079  -10.49370611966660
S         -19.43834168800348    3.02140936791880  -11.91508619320501
C         -18.85763150548188    1.49596442547838  -11.31269845481290
C         -18.29288216868231    1.69811317640471  -10.05752208018205
C         -18.33652255494443    3.04929837661197   -9.60300975780191
N         -17.74351747083390    3.04453519753427   -8.38399036540370
N         -17.33743724145464    1.81434151763405   -8.03749675578663
C         -17.64874317657576    0.99455292519776   -9.00860022586288
C         -18.97397078383331    0.27384197708808  -12.03308748649063
C         -19.53567973260111    0.14481806336055  -13.23867395968276
H          -6.04909769486396   -2.27598098458848   -1.61766228501507
H          -1.33258108330348   -0.97602545780234   -2.69642474688865
H          -5.15805142181677   -4.89794774941748   -2.06746024568748
H          -4.14126948300371    3.71847345155364   -1.70341611915337
H          -6.72775621926721    8.33123753517268   -0.97493278895497
H         -10.35136615964306    3.20074982552383   -0.14288000786472
H         -10.15349701494123    6.25024347653384   -0.31009534365394
H         -12.42828446458662    4.30347375448471    0.44018499201087
H         -11.43838244440000    7.85519509981230   -0.30072278570778
H         -12.59088650911871    8.38368963755773    0.93049849690205
H         -13.12346014623116    8.15782111585453   -0.73231065696885
H         -14.61751778850058    6.95096030924701    1.39343343466639
H         -14.41679402955883    5.19137915761994    1.23865734237855
H         -14.97322660316738    5.39198131577783   -1.08949257096850
H         -15.66982933969974    8.14251370862613   -0.31654464404923
H         -16.06490989918668    6.52364703118404   -2.90053965343816
H         -16.71038838245065    9.44144568679699   -2.15034913776157
H         -17.83558114455676   10.75342441119656   -4.10317500176598
H         -18.72168665563072   10.38754551709501   -6.49304706125677
H         -19.33972999229938    9.50359833732720   -8.62981200113657
H         -19.86484083297429    7.98483476850769  -10.63758637753804
H         -19.70965195845909    5.65287628847829  -11.41268684606860
H         -17.58971617217205    3.81381252309876   -7.75431835570639
H         -17.41327219544593   -0.04808012295742   -8.94125569254991
H         -18.56262758610551   -0.58922397823213  -11.52496736661925
H         -19.94825226909179    0.99502492468581  -13.75626414147639
H         -19.59493767663646   -0.80669200752945  -13.73504783797602
