140
 SCF done       -229.630356009948          0.000590887210
C          -9.90118408215119   -0.69292395248498   -4.92399816080177
C         -10.09593210779073   -1.91159602818515   -4.32542342097476
C         -10.26543224657798   -3.11854301119117   -5.03400149767962
N         -10.40177874132485   -4.13241128333503   -5.55561883821304
C         -10.20065736627800   -2.12891459839104   -2.93541405020737
N         -10.32290320095197   -2.39061016974193   -1.82364471102011
C          -9.91298324825376   -0.44637987134688   -6.35916089680331
C          -9.86345036572040    0.95118191932356   -6.57362191833538
C          -9.86292837596786    1.50945278545007   -7.82849528630639
C          -9.91048829601220    0.64452330122107   -8.92673230717309
C          -9.95539873664962   -0.75189695677077   -8.70291392425099
C          -9.95860492652353   -1.31594890282485   -7.43335475377929
S         -10.00191903139825   -1.63740733183164  -10.19796756414199
C          -9.96263361491383   -0.13947853865745  -11.09006949064334
C          -9.91693267860072    0.96722874764179  -10.31159185711166
Br         -9.98531297004452   -0.17851900905605  -12.96551595441294
C          -9.80604503452052    1.65454536908826   -5.27436363969824
O          -9.77147157707188    2.85820631018725   -5.13125759204831
C          -9.74180373329447    0.58471808384760   -4.24773061065832
C          -9.36602609227204    0.70593221430528   -2.94069399361116
C          -9.21975159261664    1.87165449389931   -2.12448124906755
C          -9.95408399107933    3.05295987899774   -2.32934841140572
C          -9.75705219431816    4.12545822080380   -1.49666424599476
C          -8.79152243628266    4.06453557621868   -0.47359596705306
C          -8.08371428462775    2.88915002194898   -0.23648373919828
C          -8.32170011420843    1.80062341973203   -1.04143367191699
C          -8.73215089885904    5.34355258135465    0.18306676790752
C          -9.67219805766610    6.20514515502729   -0.41634455217485
C         -10.39417701557765    5.49964679498573   -1.54831477978688
C         -10.05484105845639    6.10767757875050   -2.92694229162293
C         -10.57834231964783    7.51384157280603   -3.18764790984219
C         -11.90125410536895    5.47880756818178   -1.22220315387073
C         -12.79078949879114    4.73766918562831   -2.21219007595194
C          -9.85449591665839    7.47413139339652    0.07291902124279
C          -9.06276768737832    7.93761360567906    1.14013512312404
C          -8.10798396857621    7.06917593260065    1.70146797285721
C          -7.94325155209269    5.78395475169317    1.23976015263558
C          -9.17281396014169    9.25880773774554    1.68587199395504
C          -9.93888857642216   10.27955698196530    1.21316604552044
C         -10.00301173880866   11.59339226837362    1.72440305000263
C          -9.38494685800679   12.14070837988516    2.82333351013970
C          -9.45977762121670   13.50840696446084    3.19801487186680
C          -8.74255229726969   13.83892908904420    4.30783974492036
C          -8.06783300257890   12.74767311615990    4.89390507179982
S          -8.37949998968871   11.28654923974164    3.97969380176378
C          -7.24529690242961   12.71375475538041    6.00176644533491
C          -6.79043697223618   13.77144773780616    6.81884171666871
C          -5.94589466794488   13.37518997736678    7.81138319196428
C          -5.69164146479591   11.97930094372972    7.85212322693717
S          -6.58247452838797   11.19332418951747    6.55950581303741
C          -4.86471555597017   11.33737914264486    8.73781087013749
C          -4.62603022171134    9.95137461942968    8.82550398585657
C          -5.23034852170312    8.90898630623147    8.16146777716988
C          -4.75199354067211    7.63749611754330    8.52633593631875
C          -3.69943677634028    7.71059418475095    9.47822307191849
S          -3.39531284920663    9.36535913959625    9.94356018988216
C          -3.05285243929150    6.59372908974062    9.97254461380171
C          -1.98944031975085    6.66728528165294   10.98290830182781
C          -2.04770275463413    5.87721694715671   12.12979333960257
C          -1.02864160801815    5.91423134055067   13.05865377475875
C           0.07567664409607    6.74006147596574   12.87559934470022
C           0.12119500011326    7.54089363999246   11.74288148483461
C          -0.89622841329058    7.50882368527905   10.80747064950152
C           1.17977494263040    6.75346934920946   13.88758843647897
C          -3.46835012721835    5.34870341968862    9.45730922814012
C          -4.52604306347737    5.27577314431709    8.51094979299330
C          -5.19944628450159    6.38943410259002    8.04523938070817
C          -6.34452892070308    6.30069676572928    7.12969026900544
C          -7.53648199762183    6.95649064928369    7.43515683648774
C          -8.61982432936997    6.87654571852140    6.58516717488212
C          -8.55435845335979    6.13731682775282    5.40862264182302
C          -7.36879882938932    5.47993566910947    5.11076631417642
C          -6.27716678515085    5.55772853153558    5.95591493905959
C          -9.74457469243246    6.05994649772243    4.50276706239445
S          -4.86191933143146    3.61879764603102    8.07948146726891
C          -3.57942283994627    3.03830278926553    9.13875583284889
C          -2.94438964457714    4.07964333367850    9.77114972258751
C          -3.35686300915600    1.64825095049950    9.23021664109390
C          -2.49317768768159    0.99690523660553   10.06727001358658
C          -2.32010119941181   -0.41423576384619   10.12696245821451
C          -1.42557608515383   -0.83812420858191   11.05514399722743
C          -0.82409172148804    0.21077443222700   11.79622282203039
S          -1.44705108473835    1.75951429696343   11.25582800986462
C           0.11113475118904    0.11868282590633   12.79653398645508
C           0.70209293767567   -1.06356362286855   13.32512795061720
C           1.60161988479847   -0.84570872476913   14.30883430202898
C           1.79631481419599    0.53729218153708   14.64054166980698
S           0.75105690992764    1.53283870738609   13.61353399293189
C           2.62064809533189    1.04961567772805   15.56394021726067
H          -9.82526372374685    2.57970469596937   -7.95861796752379
H          -9.98733074703920   -2.38616259447686   -7.31492876235484
H          -9.88772891034917    1.97063940252726  -10.69556741631709
H          -9.07907397391532   -0.21384291524845   -2.44199386869729
H         -10.66867609155359    3.09727075618788   -3.13098752451960
H          -7.36225698979581    2.83368873675052    0.56481128206473
H          -7.78438839798999    0.87865403486198   -0.87065925776195
H         -10.43247474345144    5.43417017902536   -3.69705874651923
H          -8.96537298452673    6.11601717721379   -3.01885619405515
H         -11.65936708390416    7.56263181231123   -3.08599154257548
H         -10.32277437300036    7.80657520780498   -4.20395272414960
H         -10.12484148768767    8.23191613048811   -2.50991591817486
H         -12.24151722508303    6.51273306886829   -1.14305690161065
H         -12.01844372651902    5.02473964933101   -0.23406914918407
H         -12.64408457078828    5.09916489575035   -3.22612545311897
H         -13.83428385926348    4.89358414133412   -1.94471663380315
H         -12.59649722441656    3.66925538129280   -2.18753355198045
H         -10.61086546699400    8.11930918149492   -0.34362699448417
H          -7.50110162983541    7.42529388267905    2.52151884253038
H          -7.21262968274113    5.12728060239552    1.68818459537863
H          -8.54025290563553    9.44017220078695    2.54276586568524
H         -10.55035781876416   10.10988162564624    0.33667716480596
H         -10.61532616948510   12.28811799564108    1.16166519227352
H         -10.03742615721241   14.20986571046596    2.62141093224143
H          -8.68515007211734   14.83025839197680    4.72091884612775
H          -7.08528036432747   14.79088023239131    6.64426419193781
H          -5.49217115977708   14.04190242987245    8.52372094244417
H          -4.33446403231470   11.96185176792439    9.44502059518655
H          -6.00441017903523    9.03929253417435    7.43012679240687
H          -2.90624090187967    5.24327450661057   12.29738216274172
H          -1.08428947120778    5.28879774357026   13.93808843332176
H           0.96789853629234    8.19348603160068   11.58324413770776
H          -0.83056308382478    8.12228311808451    9.92087979110193
H           1.56581534673514    5.74584368216501   14.03630390318479
H           0.80904547302837    7.11240039588101   14.84738983011831
H           1.99521227505376    7.39767502876234   13.56852457584403
H          -7.61707397010759    7.51038125984552    8.35926176891885
H          -9.53646120368406    7.39021521830991    6.83790656935576
H          -7.29889656082506    4.89545776500713    4.20493904357737
H          -5.35901396091151    5.05167995084060    5.69601001696804
H          -9.97537368240512    7.04457361526040    4.09640695651796
H         -10.61796544849006    5.71538675177137    5.05494570464872
H          -9.56466788881938    5.38129308675008    3.67296742222998
H          -2.10485774886393    3.94955112076468   10.42699655278779
H          -3.95519923483559    1.02643467690492    8.57677155855574
H          -2.87388742760727   -1.06596886913567    9.47400566955647
H          -1.18066987439822   -1.87008863073028   11.23219358850323
H           0.43427639780271   -2.03604124274603   12.95124572240623
H           2.14821034921835   -1.61451987657233   14.82568923161687
H           3.23895103695545    0.40619107572201   16.16458093896981
H           2.69393960045745    2.10816168155135   15.73329428007488
