68
 SCF done       -156.744255529661          0.000793278876
C           0.81614180894503    8.44699737330854    2.21709593089498
C           0.51517417107534    8.90749134953658    3.47203477114559
C           1.43211777246566    9.58139412041267    4.30621769111064
N           2.13262291601216   10.13914577882601    5.02403846854548
C          -0.73021016566775    8.75027688498701    4.11638796226804
N          -1.70641971642356    8.64521626504696    4.71151603728488
C           2.12289743184332    8.51972275317420    1.57361665372281
C           2.05586984474934    7.83867758992971    0.33241375248552
C           3.13208221243079    7.72600020969388   -0.51315354702757
C           4.33760015562270    8.31251242995442   -0.11357968630509
C           4.39613614315652    8.99399277784254    1.12583399159702
C           3.30577569077221    9.10854550924504    1.98005336945423
S           5.97757166399240    9.65103468667022    1.41849541940714
C           6.53129082959597    9.00889931723271   -0.10500621676695
C           5.58212064976431    8.33661747951411   -0.79936710717637
Br          8.30730692140981    9.28838021874096   -0.63634588917108
C           0.68955485079471    7.33353847134876    0.13132047574175
O           0.25845938910712    6.77844998621257   -0.86656066283191
C          -0.07435072635865    7.72849741255378    1.32259054270171
C          -1.43167674576652    7.59645484763272    1.46666035174299
C          -2.31213458282022    6.79078770161625    0.72423289834920
S          -4.01668427902395    7.23382814167969    0.72994981760772
C          -4.45024043309911    5.86750473072411   -0.25164958656995
C          -3.33289828999743    5.08855104754090   -0.51707768445767
C          -2.13550306114740    5.60688818477240    0.00978078976307
S          -0.72574788473449    4.63370400621909   -0.21142298930247
C          -1.53607958701884    3.30503063927708   -1.02301788409363
S          -0.75276563900486    1.95677051844539   -1.48249459874884
S          -3.24293542279259    3.57097961397204   -1.35363032844269
C          -5.76866085092796    5.67661591463804   -0.70055952697757
S          -6.22383104779035    4.37449109285622   -1.76681230410247
C          -6.87524874037586    6.47401745272516   -0.43092495155573
N          -7.02342247489393    7.58714559006458    0.33061980788064
C          -8.22575551224810    8.01002853733264    0.29090490283032
S          -9.36287725974308    7.09847612067589   -0.69836993002032
C          -8.05532819557981    6.03472881046081   -1.09043004081046
C          -7.89286625188907    4.90724657560238   -1.87385269428200
C          -8.84235793229353    4.25790215473137   -2.69048450262539
C          -8.56843692991731    3.15091594312743   -3.42586706476384
C          -9.46844287591728    2.51637465633404   -4.30728192709504
S         -11.08379640897649    3.09924706874904   -4.63367246593901
C         -11.38951079561143    1.83206035226122   -5.79458300593791
C         -10.29068336714667    0.99944395325055   -5.90197130388466
C          -9.22066728189170    1.38720690994572   -5.06782064280668
S          -7.79184848378721    0.40201253062513   -5.11266824747646
C          -8.41537268971055   -0.75968002230124   -6.27960903162800
S          -7.55029732882039   -2.03932550405063   -6.77855384701543
S         -10.04118423944058   -0.43330597153909   -6.86108971961515
C         -12.62414657207521    1.76595701528848   -6.49217220401815
S         -13.99156225698168    2.76809219669163   -6.05715257122629
C         -15.00063692792792    2.14147024966911   -7.29300099427661
C         -14.33246036819639    1.19419848688755   -8.02826551325129
C         -12.99232895872961    0.98942279135141   -7.56876168580579
O         -12.36166730106153    0.07211289090199   -8.32982595911070
C         -13.27862989389090   -0.31632916685351   -9.25864287152818
N         -12.87150128621817   -1.29194813915966  -10.20946743422438
O         -13.70685127433599   -1.62500120495034  -11.02589732629109
O         -11.73830046009427   -1.70705408658065  -10.13987703525345
C         -14.48352329689555    0.31509224110697   -9.13885946778765
H           3.04782225654985    7.20036125058037   -1.45128347004123
H           3.40069791920451    9.64221119051374    2.91089587020625
H           5.75081738021616    7.87707309205351   -1.75612273299262
H          -1.92192107314814    8.20722041137246    2.21472344142730
H          -8.56577977644189    8.87710243464442    0.82182414061818
H          -9.82935237024276    4.70190253432866   -2.72543684015757
H          -7.58343879247959    2.70381218125893   -3.36713551679741
H         -16.00205191836359    2.50231352331957   -7.40374343434727
H         -15.34027228028163    0.16468789656933   -9.76230464230893
