91
 SCF done       -170.817840570958          0.000486471555
C         -14.51043765073995   -0.83871445046015   -5.78512652427279
C         -15.05908302343026   -1.78924899213202   -4.96365186532041
C         -14.75936486821157   -3.16504119801479   -5.03158500392863
N         -14.55179904851399   -4.29388912422808   -5.04374667882821
C         -15.98272282001014   -1.50557988591282   -3.93705770297097
N         -16.73073187825574   -1.31519781912072   -3.08731914564673
C         -13.53370255528954   -1.08313626817240   -6.84407492922136
C         -13.17626099376295    0.15559466187244   -7.43740102360228
C         -12.27527165396732    0.25044396127027   -8.47039664568262
C         -11.70144348347066   -0.93338204789805   -8.94588964346451
C         -12.06484436554936   -2.16456937518389   -8.34982066509152
C         -12.97363716779496   -2.25983220413270   -7.30181223464772
S         -11.24366082159819   -3.50162061269674   -9.09355562020942
C         -10.43426094340102   -2.40536524545077  -10.18126806433860
C         -10.76041129953468   -1.10346937544965   -9.99759667727484
Br         -9.23591068910130   -3.08102943911401  -11.45585561067250
C         -13.92585622625812    1.23128623926734   -6.77678687568186
O         -13.87166071506315    2.43419578312270   -7.01125053930965
C         -14.76819005264880    0.58263573663105   -5.76748661561420
C         -15.66045131742545    1.29813926596687   -5.00669661437457
N         -15.76488053247524    2.62393123431763   -5.14885909114471
C         -16.67147272120184    3.43529888395900   -4.54368208996135
S         -17.93736221165572    2.78717887395420   -3.54399783617638
C         -18.59860910847901    4.38088457463521   -3.38564001809249
N         -19.75419749675615    4.53575167765925   -2.60528404068708
O         -20.21857230997876    5.65462885442673   -2.50259381223390
O         -20.20526276770588    3.52890908451712   -2.09051162898094
C         -17.89325988294931    5.33809012356842   -4.06259347536231
C         -16.76049330821572    4.82038073882826   -4.72245239894773
C         -15.85474481347159    5.64914968113628   -5.47618483779876
C         -14.53447292929575    5.43328458863633   -5.66166069733229
C         -13.70059140624042    6.28887441356950   -6.43375520495867
C         -12.36273473896977    6.10815087387585   -6.54944235764018
C         -11.50989646031607    6.93880165508384   -7.32253706381395
C         -10.16314213060527    6.79071486297358   -7.36645319971420
C          -9.29305491892503    7.61339499545798   -8.13275149266236
C          -7.94524085229741    7.51040950999785   -8.09406313941796
C          -7.06956176363558    8.33204576640313   -8.87289175822323
C          -5.72867279283525    8.35846596680898   -8.79819344132796
C          -4.91668485592054    7.53617122669749   -7.84368786035821
C          -4.92998089952043    9.27108248556669   -9.69786951527605
N          -3.85960744330866    8.56268564936653  -10.35529550063066
C          -3.58997581250454    8.60024839195860  -11.65681638177856
C          -2.53505068771093    7.93671836033534  -12.22525236528785
C          -2.20524504862225    7.90733597110015  -13.58431058003054
C          -2.61040842722139    8.66566964567143  -14.66059491951861
C          -3.23484378524625    9.94921159802987  -14.81916271685913
C          -3.22977412857395   11.00636999479970  -13.93412879993497
C          -3.79973693857019   12.26553413879477  -14.19833359857889
N          -4.26796314914455   13.30548915264210  -14.33942714770458
C          -2.60497827110575   10.97822504729535  -12.67846788684152
N          -2.12154191467054   10.99367542882180  -11.63500073719993
C          -3.67706610034360   10.05726588405786  -16.21149822144403
C          -3.15736042938755    8.95900103469139  -16.93752341862547
C          -2.41366382634585    8.08262574905251  -16.00787168208162
O          -1.79790978295347    7.07461494975795  -16.28367581116816
C          -3.36718230758301    8.79530670689753  -18.28376096614360
C          -4.13970573316581    9.75730078770775  -18.94482525366750
C          -4.66872086319199   10.84140838785936  -18.20804452313311
C          -4.44763298124707   11.01138421821596  -16.84576349163267
S          -5.60421401447006   11.90399889643446  -19.21708577945061
C          -5.26975879574059   10.89274463732319  -20.59760260847732
C          -4.50077301359493    9.81415941999353  -20.31947521978668
Br         -5.97132505862770   11.35573303537108  -22.27542429419474
H         -12.02415496298356    1.20676413094326   -8.90196403267326
H         -13.21895685715640   -3.22143059486357   -6.88312897738058
H         -10.35623264907261   -0.29610081250003  -10.58047006904178
H         -16.30776100753904    0.82620514068107   -4.27866024521065
H         -15.13802609893293    3.03134148247925   -5.86522957212300
H         -18.17524679512008    6.37552796966933   -4.06161318542627
H         -16.29518596662344    6.55276735055282   -5.87686854263237
H         -14.03972679974254    4.59954226724193   -5.18207946645521
H         -14.17424289920033    7.11524946266182   -6.94737114977080
H         -11.89872442163416    5.28370390046183   -6.02255907353449
H         -11.97448372378566    7.73321271328921   -7.89269807894426
H          -9.70314740514265    6.00724084654490   -6.77661596031816
H          -9.75189593536438    8.36248714856763   -8.76562327883199
H          -7.50247128408143    6.76579899743705   -7.44790756633877
H          -7.55937234119517    8.99156362008788   -9.57889905111446
H          -4.62221051239638    6.59211695282337   -8.30492797404638
H          -5.47835389220970    7.30731603299518   -6.94317136023004
H          -4.01500171605295    8.07159904666330   -7.55151970105351
H          -4.49944288954525   10.08514692904275   -9.09538815101979
H          -5.57151303015514    9.71987600734755  -10.45824470481252
H          -3.17612763279673    8.12588942320051   -9.75284655549107
H          -4.31279028757501    9.11897506573149  -12.27163697160897
H          -1.92347827532451    7.32757992020870  -11.57231849660933
H          -1.55042297601628    7.09133236849654  -13.87945353115008
H          -2.94895653478064    7.95327714764457  -18.81251453218232
H          -4.87636176870454   11.85351743277636  -16.32840337463735
H          -4.19906234810754    9.08701328147906  -21.05110085284756
