86
 SCF done       -165.227289288727          0.004120577528
C          -3.81586636438925    2.65755295584785    1.58246797037296
C          -4.31155596533757    3.76123521209172    2.24841034149683
C          -3.53623941582189    4.61093058261993    3.05624474694403
N          -2.96945159179785    5.35027381639941    3.72955179714681
C          -5.63402989718280    4.23430052518352    2.18134159362250
N          -6.68867017988323    4.69586558377183    2.15174925105002
C          -2.41520799275476    2.25350389640866    1.57070768229927
C          -2.26221251913881    1.17780564127523    0.66393127291179
C          -1.04817355322705    0.59524595218830    0.40262758184266
C           0.07290814157412    1.08684914121692    1.08203676941394
C          -0.09160221738098    2.15085867576123    1.99726763750602
C          -1.31971730814125    2.74841692507582    2.25341065721496
S           1.42002709458628    2.60333492215610    2.72713325707490
C           2.23948422963790    1.37592202752459    1.80146806744989
C           1.42603445625672    0.66083341923373    0.98954167032742
Br          4.09281938137161    1.15196754865656    1.99326301065462
C          -3.57697253452245    0.84885122933056    0.06556611354014
O          -3.76354268356609    0.08602680760630   -0.85501346347503
C          -4.55052152469574    1.73225722230151    0.75087777174193
C          -5.91743235750881    1.75026962811644    0.61630889721744
C          -6.76936153510784    0.83195317221922   -0.03367547038767
C          -8.09285956439324    1.14735604675825   -0.32870257157714
O          -8.92544202322608    0.27136521044107   -0.97588561739739
C          -8.37207598811439   -0.92313413475379   -1.33873609026100
C          -7.02151143522739   -1.24680317446512   -1.02182324286951
C          -6.65785230523735   -2.47318153919825   -1.47031730296465
S          -7.96248142153225   -3.25041182169366   -2.29080532597615
C          -9.00832031653919   -1.90846899657663   -2.02151345703133
O          -6.22713235940328   -0.39387595809021   -0.32710346228448
C          -8.69573566699887    2.40519631469411   -0.04189797919263
C          -9.95457310671604    2.75968074929493   -0.40219795194065
C         -10.45011943657400    4.05799627113751   -0.07684940556724
C         -11.63947802922003    4.59125356555182   -0.40455207598328
C         -12.70755242015342    3.89236294345132   -1.18343924384176
C         -11.99872574060691    6.00903667924196   -0.00117240881941
N         -11.17499394223669    6.58680244074122    1.02648204096597
C          -9.92319043856265    7.04284574213389    0.77477872823542
C          -8.96915863025524    7.23383062659875    1.72390490194644
C          -7.66854097132429    7.67514241333939    1.42896512437233
C          -6.65036058501427    7.75070471894116    2.34285097415207
C          -5.29383299246892    8.06616098689556    2.09121599300277
C          -4.48776589967675    7.99229272824945    3.18563462767646
C          -5.16643135975607    7.62711535137185    4.37074564544022
S          -6.86197822173617    7.38498880127275    4.04950035804423
C          -4.63170100305286    7.46778187437512    5.63536301941755
C          -3.28394676352642    7.59314196693850    6.03145062775855
C          -3.08025083580406    7.39041504526941    7.36203275716844
C          -4.25941126751950    7.10160302621973    8.09588600832688
S          -5.63827984429745    7.06838532094433    7.01499330007273
C          -4.33249220957091    6.89779727950034    9.44959670769805
C          -5.48278513481056    6.63904529667691   10.21252201906759
S          -7.11164070931830    6.47463981039038    9.57320009876500
C          -7.82715870568780    6.20899291184330   11.11703942156550
C          -6.87096553666505    6.24084358073060   12.10531688603300
C          -5.56236847931082    6.48077443803663   11.58660426813596
O          -4.64699112215049    6.51398860875259   12.57918971522449
C          -5.35330323416369    6.29933640112024   13.72130067932787
N          -4.64362515572194    6.28958612430127   14.94148411200283
O          -5.29814329754712    6.08641067317694   15.94834627187333
O          -3.44626466302606    6.48221074040770   14.91022316528791
C          -6.69688583835460    6.12631094222506   13.51075457748349
H          -0.96290965148406   -0.21457955405860   -0.30410865124920
H          -1.39040961016841    3.55980326562709    2.95732742078365
H           1.76565370469839   -0.13222811822156    0.34936159697706
H          -6.42484559450280    2.56306689084904    1.10550001171509
H          -5.70754244779069   -2.95321148120461   -1.37092542415181
H         -10.01785383468621   -1.92090177687710   -2.37619344016002
H          -8.10907217929197    3.13434620144230    0.49206644262124
H         -10.57519587222482    2.06530535785449   -0.94497406698667
H          -9.75244567545826    4.66390575607546    0.48779689911905
H         -12.29733504989202    3.10564891111542   -1.80812347486403
H         -13.23969903169355    4.59977339927148   -1.81580844704431
H         -13.43409370769115    3.44316812787794   -0.50407393623393
H         -13.03900322040996    6.02912791719044    0.34023680763503
H         -11.93370056953869    6.64710830926774   -0.89192757995851
H         -11.33571647595205    6.24180970151673    1.96262273739417
H          -9.72186348393860    7.28225690612761   -0.26095493770002
H          -9.18594909127069    6.98025567141612    2.75252266610367
H          -7.43376758306820    7.92240238281930    0.40194577468904
H          -4.95398643997595    8.32370464138036    1.10298271266274
H          -3.42995895963277    8.17918213006557    3.17534975480542
H          -2.50575910661600    7.81284361079000    5.32452530321560
H          -2.12332977418496    7.44198424018212    7.85043876901724
H          -3.41106389923474    6.95221593658561   10.01414393418002
H          -8.88186452665916    6.05021207202907   11.19668003838362
H          -7.43358692817837    5.94765460978755   14.26622603937390
