120
 SCF done       -218.847468502717          0.000799110347
C         -19.91581506008748    7.64146626982173   -1.96761285100062
C         -20.86701903696485    7.64553585054402   -0.98401648405904
C         -22.25168392871741    7.52492701542344   -1.22392876058879
N         -23.38738643547121    7.44428219309869   -1.36819888796256
C         -20.57626241635754    7.72919725130157    0.39455614974770
N         -20.40525154019827    7.78004789913390    1.52843086743550
C         -20.14587533048834    7.45954327931788   -3.39280774205760
C         -18.89367131090495    7.31718412898120   -4.04130379861705
C         -18.78031185436332    7.15096708262647   -5.40051006328921
C         -19.95517734361065    7.14774709092291   -6.15880036686778
C         -21.20113855224413    7.29701450274451   -5.50194901614069
C         -21.31860414837460    7.44254347799679   -4.12548951139412
S         -22.51971379277130    7.31107180729377   -6.63157243582277
C         -21.39259001979639    7.13473241041395   -7.94954561049652
C         -20.09647343173868    7.05322159388080   -7.57015497481055
Br        -22.04006553276724    7.12813438798903   -9.70672000640242
C         -17.80471930146982    7.42785050394960   -3.05101634152961
O         -16.61533335194052    7.35326471072991   -3.27579176615493
C         -18.47938963748447    7.74475437570882   -1.76349778975200
C         -17.85603334271762    8.29684461401204   -0.69019064398552
C         -16.42783153303305    8.44627484066515   -0.57472930229312
C         -15.91619739533879    9.71790184945789   -0.25837109502864
C         -14.57474571006359   10.00493933447643   -0.35778512148968
C         -13.66531397832708    9.02331295697085   -0.75478649383033
C         -14.12986544442282    7.75029301505158   -0.97408007414040
C         -15.49431846061767    7.44295515859583   -0.85273160609430
N         -15.68085163943684    6.08442157181445   -0.96483760632564
C         -16.88010201600768    5.35137010982252   -0.67904716858460
C         -14.49344853090336    5.43512631426268   -1.20728545040471
O         -14.36809443440496    4.24240807670101   -1.32209545153391
C         -13.39345034258229    6.48760974199132   -1.29406100004371
C         -12.26392939112143    6.16338992764364   -0.30150490559001
C         -12.71217300114387    6.49809641055616    1.12228305304963
O         -13.69555383726617    6.08956499798743    1.69403062944011
N         -11.81194014082206    7.38493229599900    1.64425708896157
C         -11.93582407604355    7.95519897279307    2.95760249428434
C         -10.83492191630878    7.72753459620120    0.71805339100623
C          -9.80275099988103    8.63257292668821    0.84022619664164
C          -8.98243898229297    8.86753673264792   -0.27466721023609
C          -9.19680454350372    8.13624434657183   -1.44979011652127
C         -10.22079647316373    7.21023727961339   -1.55215216750614
C         -11.05173311943002    7.01832937606844   -0.47049926256936
C          -7.95085142506267    9.87824091154828   -0.20321767155263
C          -7.49549271538924   10.54881216881398   -1.28772784233082
C          -6.50745527478187   11.55659151363107   -1.30079411925724
C          -6.21575349991570   12.26819044241322   -2.43497810522520
C          -5.24802205379274   13.28681464408878   -2.62622065464474
C          -5.22992726181639   13.82046485642559   -3.88028091491438
C          -6.19111251502407   13.26621685836758   -4.75379320350618
S          -7.10118521222183   12.01638125984253   -3.93532324975331
C          -6.49452763996340   13.59358923479701   -6.06061871113872
C          -5.91165687367369   14.54673724995624   -6.92129549183752
C          -6.50351900416848   14.61596069949935   -8.14811329620026
C          -7.59480853507621   13.73031070213037   -8.33212128247797
S          -7.81698290511898   12.78381972372554   -6.87295773752799
C          -8.37443931635364   13.63203848670546   -9.46088116320147
C          -9.48767221374299   12.80286100747644   -9.65898957548776
S         -10.34628564721381   12.88929604304868  -11.19970044659534
C         -11.47379255357986   11.71154954710713  -10.66075558469922
C         -11.19477425456737   11.27509464387431   -9.35958302803599
C         -10.08797936653474   11.88004968477702   -8.80133775378401
C         -12.20195976202999   10.24607517046284   -8.90791452914855
C         -11.52946224177305    8.90099322654032   -8.61944612519527
C         -12.98206485607860   10.73338033980465   -7.68388680748123
C         -13.08131633702902   10.17196126804379  -10.13236315303645
C         -12.61999828125705   11.03849446870438  -11.13035211806507
S         -13.59367484021872   10.97462235388937  -12.54264727594175
C         -14.63389762688787    9.77369849310356  -11.79220374436974
C         -14.21062881492790    9.46580102709743  -10.50495090662637
C         -15.72630830062878    9.24365042304749  -12.52059397543429
C         -16.59213097793083    8.31891102223016  -12.03956670810703
C         -17.65958453592805    7.74234046395820  -12.77257528206682
S         -18.04945003565275    8.12889104184423  -14.43814307725808
C         -19.33979289524652    6.99881239937216  -14.53208517092073
C         -19.48905096297843    6.33643699440985  -13.33850376136998
C         -18.54386220522727    6.77155227355694  -12.35654569714584
O         -18.71590397225101    6.10333898639756  -11.19276984168925
C         -19.74546504701946    5.24292764827324  -11.42887019761721
N         -20.15232043199665    4.41813523611333  -10.35859132853599
O         -21.01503623458544    3.59479332751319  -10.59168028858960
O         -19.61917326340621    4.59190726867610   -9.27900770345017
C         -20.25832456059310    5.32869583002266  -12.69410413984796
H         -17.81445158028688    7.03854088873509   -5.86690810535594
H         -22.28812406645522    7.55830108815773   -3.66979661601577
H         -19.27603428632603    6.91569760840003   -8.24975329388511
H         -18.45306493727092    8.79266582591793    0.06610008973223
H         -16.61475238203255   10.49706316979555    0.00941258464987
H         -14.22276557287770   11.00243315908303   -0.14402539670722
H         -12.61760936460392    9.25914205057851   -0.86490781029700
H         -17.56796550675664    5.35803477700091   -1.52944205997722
H         -17.38130222210515    5.77641625028052    0.19191499047823
H         -16.58599288624551    4.32161479978439   -0.47313969824729
H         -12.98599302658085    6.49702673642151   -2.30944078187509
H         -12.04399949660705    5.09308589045913   -0.38064678926456
H         -12.81024307422514    7.50617949848768    3.42669140142843
H         -12.07361652625341    9.03683021716409    2.89509203619648
H         -11.04898462777093    7.73747849361405    3.55553878150501
H          -9.64185504075212    9.18274795640244    1.75457625972672
H          -8.53800173227234    8.28324671204735   -2.29056061252616
H         -10.36688730245110    6.65532998250117   -2.46662271810015
H          -7.58228974847410   10.13701539437827    0.78075301505367
H          -7.94042853122664   10.33268081968876   -2.25109418572540
H          -5.96519133159801   11.78322402920246   -0.39329962507185
H          -4.59501344935827   13.59184143995789   -1.82729933697052
H          -4.56168149470087   14.60142861382573   -4.19771349042540
H          -5.07729641445594   15.15266860583211   -6.61576680792917
H          -6.19502188840095   15.28616105032234   -8.93139534261579
H          -8.10630959194259   14.28095470636966  -10.28475965118391
H          -9.72411627877363   11.67120649076356   -7.81414375899337
H         -10.83300884054719    9.00408223112177   -7.79113515386245
H         -10.98293117236676    8.55622883351739   -9.49431913738499
H         -12.27804155861999    8.15668996085145   -8.35969980251486
H         -12.30852913657460   10.86180225144330   -6.84029581442813
H         -13.74780710464945   10.01003837012118   -7.41494610141037
H         -13.46114405732828   11.68660609935120   -7.89603208221092
H         -14.71390655714544    8.75047923009969   -9.88122380513103
H         -15.85696453935549    9.60452956479802  -13.53263375371054
H         -16.49154134575421    7.94451360542054  -11.03088785468626
H         -19.89508869664259    6.89588710228268  -15.44067845971835
H         -21.07140884381704    4.75247627605198  -13.08325823584601
