91
 SCF done       -173.890328961916          0.000552666779
C          -9.15664960367793   -1.14917819514731    0.58918866709070
C          -8.02049432319650   -1.69438770925464    0.04526070883462
C          -7.74516856215384   -3.07620711678270    0.01226419550586
N          -7.47324767430099   -4.18996136757257   -0.04924008139266
C          -6.96688572014421   -0.94684673504722   -0.51989421468468
N          -6.06371104650038   -0.39842244795342   -0.97009470387227
C         -10.20962436994511   -1.88283035261665    1.28160055141424
C         -11.14391793636868   -0.95193665884715    1.79823705710160
C         -12.25364977004313   -1.33463903927386    2.51065917652688
C         -12.44854353765369   -2.70301660826959    2.72871459576679
C         -11.51089992445458   -3.62556950259199    2.20716061411912
C         -10.38958596186463   -3.23794454824184    1.48331250224910
S         -11.94658231750119   -5.26395277738026    2.58764685635889
C         -13.36132525106260   -4.69512659067662    3.43298020290577
C         -13.50286730384709   -3.34831544875951    3.43096606783580
Br        -14.51892300697969   -5.93295392733570    4.23609029027280
C         -10.72557562804397    0.41864609185015    1.44001652159642
O         -11.34028788957065    1.44214268340240    1.66300969085606
C          -9.47591333893854    0.25898064871289    0.66373564801222
C          -8.87656252545082    1.25648216289116   -0.06625681251308
C          -9.03725444613986    2.63881955172785    0.11160079407252
S          -8.84991621274428    3.68386491374221   -1.26760972354140
C          -9.23193648864548    5.10499821318019   -0.37219720904882
C          -9.43914681671911    4.79235940384397    0.98589478332482
C          -9.30248201444507    3.40069848483628    1.26506381294522
C          -9.33486110892193    2.95001687303128    2.59613298365817
C          -9.60063707104184    3.85016082506105    3.58893411818525
F          -9.63069460493848    3.44569070386958    4.86639921075710
C          -9.82174649537308    5.21530173393829    3.30242540724579
F         -10.09153833596930    6.05763302746794    4.31222011454720
C          -9.72369587909614    5.69419951123345    2.02732493888958
C          -9.28679581323859    6.39004756490820   -0.96441625472987
C          -9.00761598740671    6.65806857224709   -2.25936869437025
C          -9.01293462386799    7.98950897636825   -2.81554164651170
C          -8.64217494163023    8.23241957556860   -4.08614708956627
C          -9.39603822388439    9.06055170602233   -1.96867179476002
C          -9.71793361929654    9.97315410430993   -1.24391669117153
C         -10.07368565633144   11.08216827358772   -0.46507874240245
C          -9.16299813569094   11.87995471216988    0.12033083509376
C          -9.53158821655172   13.07883722956963    0.81673470762919
C          -8.70463122131572   14.01153624585514    1.31513675693084
C          -7.21395544702278   13.95533927633873    1.30748029203901
C          -9.28497448781752   15.30317692932014    1.84165010764350
N          -9.29496559021897   16.32165742068265    0.80229332864158
C          -9.70602303715403   16.09450775837749   -0.44293990526187
C          -9.83396362931302   17.03947935146257   -1.42273881797401
C         -10.30772025950526   16.76196095303156   -2.71228739982602
C         -10.44873877122333   15.56220584233488   -3.37350214381307
C          -9.84768932236434   14.26480392142444   -3.22597536550926
C          -8.61091859645874   13.95748525926822   -2.70254056087062
C          -8.00679252426704   12.69175807396532   -2.81646116731303
N          -7.45619771717811   11.68601378786338   -2.89316830455711
C          -7.76185371038724   14.88866683393552   -2.08699009539603
N          -7.03313735772991   15.60506794908459   -1.55993105344572
C         -10.64580401716953   13.31865403391088   -4.00528103932590
C         -11.56646051253357   14.04543349334335   -4.79623774768043
C         -11.42126142976154   15.48695902831984   -4.48841917777237
O         -12.00588104170707   16.41147092964840   -5.01102101608704
C         -12.44016598512877   13.43062714125987   -5.65828919045348
C         -12.41474761319481   12.03194601878591   -5.72529914562878
C         -11.50999192816648   11.31693938726904   -4.90799248995805
C         -10.61505263637441   11.93966127905034   -4.04613209560899
S         -11.66763356446060    9.59903388178073   -5.12491403619014
C         -12.92454822910362    9.86314816969829   -6.30586094038584
C         -13.21467588369560   11.16694150867998   -6.52333319052931
Br        -13.73276339720019    8.38727989171348   -7.13682732573145
H         -12.94734768249279   -0.60179765119614    2.89183176248343
H          -9.70655361740813   -3.97842769046450    1.10183028141625
H         -14.31663302622641   -2.82969140219345    3.90400063919956
H          -8.26108683157816    0.96653559582405   -0.90998020577415
H          -9.13228346322635    1.92317367984828    2.84723755350390
H          -9.85339742610346    6.74770366640315    1.84182115678650
H          -9.55426310341124    7.20984524128621   -0.31135967392183
H          -8.73249663866897    5.85560908839797   -2.93105220798486
H          -8.34536320767595    7.43184135697420   -4.74124279757128
H          -8.60918644002620    9.23253772784601   -4.48062216210304
H         -11.13484104622185   11.29034103006970   -0.38363311945606
H          -8.11593148223519   11.63916444660825    0.01262280248505
H         -10.60125807596548   13.24614443937832    0.89902682274538
H          -6.84155532783620   12.99109324401615    0.97924450906493
H          -6.82854053042106   14.15435575810047    2.30714315108478
H          -6.81853706215603   14.72151548829922    0.63841772140621
H          -8.68604224332667   15.68175223262250    2.67131273887825
H         -10.31030556143691   15.14115140389121    2.19862085561908
H          -8.94748095950906   17.24076636308985    1.02972746293908
H         -10.01711196148586   15.07801535008907   -0.64220701067848
H          -9.63944325921448   18.07386964423210   -1.17620789045956
H         -10.70898441956345   17.60728880150203   -3.26349190243503
H         -13.12528742045919   14.00611476915076   -6.26068047786222
H          -9.95350625921521   11.35201402087228   -3.43135219629091
H         -13.96142466176877   11.50832250927502   -7.21676748516496
