118
 SCF done       -220.319585176684          0.000429987341
C          -8.44124720437294   -0.03014378749846    5.78082983500697
C          -7.89613978314822    0.41669554727939    6.95439769827373
C          -7.88490876061968   -0.32509017865286    8.15416464823672
N          -7.84332387734229   -0.88866187808205    9.15308969195365
C          -7.30945737361844    1.68872871124227    7.12609758290441
N          -6.84182446299653    2.71547667153097    7.33766855220890
C          -9.15591094317012   -1.28371204141169    5.58611817213806
C          -9.71174223293684   -1.29698903201155    4.28258326638245
C         -10.45269039097370   -2.35083759936890    3.80538187001702
C         -10.65680394078842   -3.44315657999274    4.65455919436378
C         -10.09384406226270   -3.42312442721450    5.95374568564797
C          -9.34373921994080   -2.35854341671779    6.43625573688235
S         -10.46214632800522   -4.87625464837342    6.83209536015251
C         -11.35612078764056   -5.48182675524809    5.46303765496902
C         -11.37896652539278   -4.64099167918705    4.40141322047423
Br        -12.17436655611237   -7.16602974963168    5.56401802808552
C          -9.34739956361710   -0.05405698918322    3.57295386223448
O          -9.62208976351042    0.23508148353893    2.42969747118845
C          -8.49583815861005    0.70642042053746    4.52919338359743
C          -7.75796825820607    1.79227263411631    4.18700526308906
C          -7.86789350358711    2.49614312828143    2.93450180625458
C          -6.72439462792832    2.67507653878002    2.20120402054523
S          -6.98496681593691    3.26735703444024    0.62133845165242
C          -8.68865005772346    3.39190444756695    0.94790747321907
C          -9.03961268325920    2.97989427514580    2.24116283795556
C         -10.37722606309092    3.14686319644159    2.67709431964014
C         -10.70689388074705    2.93741090560618    4.13232811366115
C          -9.98458843852628    3.95720722097560    5.01532600762541
C         -11.34677866652046    3.58556525571374    1.78075624804692
C         -12.80019800097917    3.64614076489814    2.17303954399791
C         -13.17137651738007    4.96484871021785    2.85652802484226
C         -10.99048577839089    3.96051991961127    0.46305828965332
C         -11.80041819524488    4.43137849816765   -0.63861228799963
C         -11.05637788216952    4.62195945658959   -1.76727060184796
S          -9.37890851624133    4.31372969101659   -1.58558528868310
C          -9.64793895296776    3.85633972806193    0.06647266341300
C         -13.21190363485432    4.76565216906234   -0.64465462508039
C         -14.01262017407100    4.48094358931198   -1.69329362684865
C         -15.37397302681735    4.86210582140817   -1.85127422841517
S         -16.01861110660287    4.92531576596707   -3.45287651751107
C         -17.53753111960135    5.60787042930535   -2.94364104643761
C         -17.56637891897103    5.70748584920017   -1.53298414564039
C         -16.34918933997277    5.26249473221050   -0.92201999546161
C         -16.26041213454404    5.17280825066344    0.47980519850225
C         -17.31488893478695    5.57831395787569    1.24424346098300
F         -17.24265653700740    5.48162176093128    2.58468668783715
C         -18.49469495560339    6.06486450534835    0.64895912016288
F         -19.51084757216870    6.45705839057515    1.43527935806673
C         -18.63600875347515    6.10614212910412   -0.71017232353319
C         -18.46681795597383    5.94068551711902   -3.94079561668598
C         -19.56334456825491    6.74976279244545   -3.78470151234386
C         -20.51727648522073    7.03048703068311   -4.76228868206235
C         -21.58651068125534    7.86511363754176   -4.50019097478785
C         -22.64019285698102    8.27212575094439   -5.34484172660932
C         -23.53265122126852    9.12919121242093   -4.75947417915226
C         -23.22203276184333    9.44047019924858   -3.42205014779405
S         -21.78125862357257    8.60161826069108   -2.91994872189814
C         -23.82274288223839   10.31088126901137   -2.52390734520077
C         -24.90737443883835   11.19628262092141   -2.65360138146655
C         -25.08474829295284   12.00056178176771   -1.56131183679497
C         -24.13251980679761   11.81029207291800   -0.53268367907959
S         -23.07398587404286   10.50025271560790   -0.95682571066779
C         -24.05397874347472   12.50052318215113    0.66906219848324
C         -23.08040909995164   12.41073114979007    1.65832155237309
C         -21.79052220787943   11.89560772259001    1.65859480305074
C         -21.20645972517700   11.47186646868285    2.95591135045869
O         -21.66791316645174   11.66493583669863    4.06033729007778
C         -19.96691089245911   10.73781533442300    2.61391500587355
C         -19.10023912964238   10.06954147494043    3.42664099733587
C         -17.96986899241951    9.43511612596906    2.85732494589526
C         -17.77813446805586    9.48883444022436    1.44741289572798
C         -16.65080473464552    8.85822413377371    0.88650623694370
C         -15.75888258304223    8.22844697435127    1.70779979273576
C         -15.92452916287511    8.16621198562263    3.09535774566176
C         -17.02432827129423    8.75929882375721    3.65317296422242
F         -14.67334051488783    7.62481012151117    1.16660126910537
C         -18.69937670202816   10.18421042568200    0.62853595221981
C         -19.76517396155041   10.81419594391743    1.20724631598514
C         -20.82810289515770   11.63951793702840    0.63540119015958
C         -20.78994067841349   12.19421346113370   -0.62984438990017
C         -21.66383400603534   13.20972872128863   -1.05380186387407
N         -22.34881964800123   14.05213122147280   -1.42976469489918
C         -19.84549933962849   11.85874072254343   -1.61466834973228
N         -19.13270901047110   11.59476073086990   -2.47729469019296
H         -10.86249472436526   -2.33166344754905    2.80771545767071
H          -8.92949424801336   -2.39131318048006    7.43014637454876
H         -11.88268932033825   -4.85571609465332    3.47672558383983
H          -6.93942315399378    2.09633923773457    4.82823494006164
H          -5.73211325780527    2.39171396868658    2.49756959604298
H         -10.43367416095523    1.92977069095896    4.44623721068182
H         -11.77473270331501    3.04009037166666    4.30328745503084
H          -8.90678628016556    3.81769984313839    4.98865849576013
H         -10.31184948615194    3.85431721540291    6.04770459092931
H         -10.20320516913823    4.96908567056515    4.68127603491774
H         -13.04221866497723    2.81212399563673    2.83393633259936
H         -13.40081557712990    3.50974401903393    1.27201795056212
H         -12.60935851813818    5.09266284600368    3.77794368660429
H         -14.23183688382074    4.97773214692876    3.10184803633060
H         -12.94918075957892    5.81336546742161    2.21350413823647
H         -11.41077903786557    4.99969211785383   -2.70661937431373
H         -13.57847130868037    5.36303881929417    0.17303460304326
H         -13.58982038866273    3.94951920680144   -2.53736432527345
H         -15.39147635475893    4.75979260438368    0.95877582587423
H         -19.58400253987961    6.41611128925337   -1.11234740891083
H         -18.26009024253497    5.54416301559715   -4.92755422721263
H         -19.70473859152033    7.25230033279435   -2.84017037444751
H         -20.43571320339092    6.58494350199846   -5.74400712568669
H         -22.70915273663352    7.93100473303253   -6.36297949148197
H         -24.39038025078656    9.54633958900002   -5.25609041933683
H         -25.51059328999570   11.23684548775147   -3.54276057801773
H         -25.84386096651613   12.75819006777382   -1.48434697081267
H         -24.89982651697116   13.14141048379483    0.88472232128919
H         -23.39075754251058   12.75149292416833    2.64295314608947
H         -19.26489480665339   10.02800115748855    4.49283910970646
H         -16.49067133044246    8.88176247114745   -0.18059611153176
H         -15.19175531287808    7.64789822074303    3.69294370477249
H         -17.17948293868926    8.71690718913000    4.72047116201201
H         -18.53259236630471   10.20271340732776   -0.43675946730571
