94
 SCF done       -166.731066899216          0.000778473456
C          -9.62576525333547   -1.16193460925623   -5.16408206898171
C          -8.83371817605138   -2.18544982295220   -5.62211443922865
C          -9.32823243121002   -3.41012243934640   -6.11380099216236
N          -9.67114723115631   -4.42308965574909   -6.53254258063752
C          -7.42465312397360   -2.16783674171920   -5.65690662073926
N          -6.27920685967524   -2.23910484757339   -5.70981031026884
C         -11.07996438017567   -1.19315577882697   -5.07095721127177
C         -11.52444247982448    0.01509853339764   -4.48139046908906
C         -12.85236830108475    0.28774440446022   -4.26226689324072
C         -13.78924640970800   -0.68201948839771   -4.63507077750280
C         -13.33637966564759   -1.88572624666927   -5.22460804366858
C         -11.99353500840695   -2.15943056781255   -5.45170113508352
S         -14.66015751940193   -2.94140631049375   -5.61888223549580
C         -15.78717359430862   -1.76708323425562   -4.99328654961722
C         -15.20552032971959   -0.64262361057922   -4.51348921804430
Br        -17.62612276348671   -2.13578543192830   -5.03382917723621
C         -10.36310752865335    0.88378077266772   -4.20033955131287
O         -10.41397441050031    2.03755639796473   -3.82835951340877
C          -9.17238033042149    0.10161816923627   -4.61914785476709
C          -7.89948057961947    0.58826641845261   -4.63364085408048
C          -7.46552384914488    1.73633599405285   -3.90128901666152
C          -6.48868090142665    2.58742119701302   -4.40689810437633
C          -6.12299816513118    3.76764155491984   -3.77694346109770
C          -6.71243714095883    4.14181866856174   -2.57718314672921
C          -7.61182742467996    3.22028311499720   -1.95211377163191
N          -8.09522377249686    3.53068865932094   -0.73573613151331
C          -8.89622716761139    2.66762712705229   -0.16378536392589
C          -9.18371347523429    1.43015468509986   -0.76514489102987
N          -8.73288430311972    1.11319087489283   -1.94922630831904
C          -7.97980909258220    2.01638058015190   -2.60075871684390
N          -6.48569324742937    5.28609242762502   -1.88238497234436
C          -5.95306237335771    6.49421604206484   -2.28119332390235
C          -5.76114969257010    6.94625128358517   -3.55576009248668
S          -5.20206067434483    8.56956985675041   -3.60241232925857
C          -5.21298565301916    8.66548293327723   -1.88906721612482
C          -5.62091640969346    7.50076245923561   -1.30547682983349
N          -5.75346365518644    7.33028869804159    0.06188003422918
C          -5.42032591685299    6.20558041986378    0.76555208442219
C          -5.55116701749914    6.11284768728688    2.11074689598624
C          -5.15807674599842    4.98449714288553    2.85765274703142
C          -5.28034023412804    4.87982581628850    4.21734185295867
C          -4.83157550224429    3.82008502437671    5.04334425749433
C          -5.06829436018687    4.00234238386059    6.37180932656533
C          -5.74179689196871    5.20540134401745    6.67809322545247
S          -6.04390625144522    6.11700089454895    5.21326321218244
C          -6.15626023236529    5.65611510488077    7.91572559613669
C          -5.92784018691316    5.06648433417307    9.17822515978179
C          -6.48705017432670    5.74826864447254   10.21487106421765
C          -7.21163957909208    6.91003545475141    9.84208428283751
S          -7.10872331552687    7.11389192656844    8.09740384652662
C          -7.90080865768972    7.71532418074605   10.71056049568785
C          -8.71819460519463    8.83449876347553   10.44276887736501
C          -9.43131097621018    9.53774193024802   11.41548286127072
C         -10.18891091422156   10.55694847811695   10.78384354155430
C         -11.07042801186050   11.48932735345694   11.27791311509255
C         -11.69393437452488   12.35398623527775   10.35918964060906
C         -12.62613832666906   13.36253442517724   10.53297924649015
C         -12.94446583923601   13.93094179759816    9.25535938937939
C         -12.20176866256542   13.27124131609290    8.29684346160241
C         -11.40409241896925   12.27026818466851    8.93780773930898
C         -10.52367518222887   11.34920599502147    8.44230235460759
C          -9.90619825147750   10.47069352619017    9.36098346254630
C          -9.01779252641686    9.43351873067398    9.16849136511180
C         -13.87877362413621   14.99835528858104    8.99300339804336
C         -14.62337503505843   15.61985791964054    9.90382177620310
H         -13.15973132761204    1.22048447765343   -3.81568727369826
H         -11.70001563471517   -3.08843611485728   -5.91108562788826
H         -15.75085815216324    0.18241910581215   -4.09274633093176
H          -7.15253564727400    0.10220762589808   -5.24825033685185
H          -6.03599398247680    2.34454016011755   -5.35743198024357
H          -5.36886039658943    4.39362010522558   -4.22464314914071
H          -9.29255641555359    2.93891899453230    0.80479197499342
H          -9.77585683427245    0.68129034231221   -0.25645539495735
H          -6.95454131184843    5.28104229995528   -0.97882263512525
H          -5.97349517216436    6.44785341901831   -4.47790174219138
H          -4.91955209315618    9.57355321515789   -1.40264450809932
H          -5.88183378180419    8.17305619186219    0.60507611968565
H          -5.02607791052703    5.38272197826808    0.18782066385418
H          -5.95862197762102    6.95101163402532    2.66164736926761
H          -4.70820662143120    4.15382896639649    2.33030252394760
H          -4.33839972282627    2.95968160891200    4.62576539985793
H          -4.78952740767241    3.30036289924573    7.13737105402483
H          -5.35427021934921    4.16341120223162    9.28711212154735
H          -6.41524398842232    5.44782841686013   11.24575265967936
H          -7.83507023073161    7.43084974127465   11.75471253616262
H          -9.42056338626146    9.33402930236757   12.47054732471204
H         -11.29106104191179   11.55826909577432   12.33394137459860
H         -13.04734575478960   13.67294445245969   11.47161504195791
H         -12.21491825305582   13.46421885796714    7.23947083894737
H         -10.30362889739811   11.27599557861358    7.38630971985011
H          -8.61657990415078    9.11779658762205    8.22360010580097
H         -13.95824987632320   15.28664893043580    7.95160851907669
H         -14.58499981729818   15.36511633013525   10.94901933358653
H         -15.30638705133805   16.40590222458924    9.63160015884210
