133
 SCF done       -234.181674993520          0.000401654768
C          -3.51560447677073    0.74315875900859    2.67428817430762
C          -3.15540004424439    1.18361850222684    1.42430425781322
C          -1.86158901583579    1.61888282625250    1.08036933990971
N          -0.83371864329384    1.98680642182744    0.72021892644636
C          -3.98349571767676    1.21911603645233    0.28472750733444
N          -4.54903036982791    1.26536981667551   -0.71483090944348
C          -2.60359531324283    0.61272806784919    3.80290299399139
C          -3.28902729674742   -0.03045042518048    4.85991763538267
C          -2.69626861580095   -0.31327357752849    6.06571194909312
C          -1.35871367560898    0.05976910287358    6.23772512566497
C          -0.68260549422755    0.70960437036138    5.17823174512379
C          -1.28389403879412    0.99448113763805    3.95851006782812
S           0.95979062735944    1.08652353199298    5.60353177738251
C           0.71951139859406    0.37347580456918    7.17609551432667
C          -0.52540597652426   -0.12102738013563    7.37524620502774
Br          2.13495521365716    0.34749076349749    8.40670652532674
C          -4.67531489068422   -0.32729551527704    4.44221020664614
O          -5.50207365989927   -0.90020826313984    5.12129767929264
C          -4.81623333601636    0.24259584860035    3.08202906042904
C          -5.96491981924533    0.45518869963941    2.36828601422135
C          -7.28397510079038   -0.03377495422563    2.57349591057500
C          -8.46139620011666    0.53007084777834    1.93879675913143
C          -8.59541810606391    1.68351111793676    1.14048407265240
O          -7.46525484382443    2.41647000382629    0.98412691807075
C          -7.34077047780467    3.51086914502992    0.09089671649159
C          -7.19073040950886    3.08315486452004   -1.36282739345045
C          -9.87407612661729    1.95228009740514    0.65318536610945
C         -11.02902587847338    1.15627087715441    0.92969072738939
C         -10.88778278012342    0.02855148106943    1.75989869448061
C          -9.60599355595271   -0.23308827059370    2.22258585686045
S          -9.24715381044024   -1.60158152461224    3.24449072807543
C          -7.60591325097283   -1.16284398428803    3.29503874306245
O         -11.83393394941059   -0.82440549325517    2.24486187047660
C         -13.00867894934410   -1.15213176246832    1.52878922480109
C         -12.73160701449615   -1.68993992968484    0.13043039085288
C         -12.18189053783569    1.66042666566372    0.27751643583575
C         -11.96604847898816    2.77377592830975   -0.49715414608783
S         -10.30355191794515    3.29096137092800   -0.38809145991858
C         -12.90704472212374    3.44051452367895   -1.31600992462491
C         -12.62169265313477    4.44054319874705   -2.20572868126018
C         -13.51691498253432    5.10369767484347   -3.09192927438401
C         -12.93062884842866    6.01770703296643   -3.91386571092518
C         -11.53579065078167    6.13983598085472   -3.72619838889199
S         -11.00322573360998    5.05955829145994   -2.45186610256002
C         -10.57084484286037    6.90196145370482   -4.34710162933555
C         -10.62897015594393    7.84764159868837   -5.39726282468536
C          -9.41992309755926    8.37661329710021   -5.72664982016016
C          -8.31937084441316    7.88681555390823   -4.96182785423391
S          -8.92338922155263    6.72724568515509   -3.78569887776832
C          -6.99983612591390    8.17979125855351   -5.14437775059373
C          -5.88684886136412    7.64655899862065   -4.41072893885225
C          -4.61202567135577    7.63745968925235   -5.01210087188143
C          -3.55671738514933    7.03582595969178   -4.37164350317381
C          -3.75402733986167    6.40330339086918   -3.12850046379842
C          -4.98265113988816    6.47291678573771   -2.48791676475193
C          -6.02689553899249    7.10675163216804   -3.12134461917897
C          -2.53488687312801    5.74316955024488   -2.73833839277133
C          -1.56076855196693    5.98463160155634   -3.72286208483360
C          -2.11477104881001    6.88674905517127   -4.80830750946951
C          -1.98687846529648    6.25920277185010   -6.20363448515146
C          -2.63391232945387    4.88086873617314   -6.28018213088155
C          -1.35130812196409    8.22895186182277   -4.71069329215743
C          -1.87495106581602    9.35457257861977   -5.59258112798023
C          -0.30110565178285    5.45856794515278   -3.58939506936680
C           0.00972969631798    4.66414559909956   -2.46971689266936
C          -0.98401288814237    4.41746871134060   -1.50893189354042
C          -2.24653692423399    4.95062451942498   -1.63415083937233
C           1.35127817287212    4.17592134304861   -2.32492709174824
C           1.81673013940896    3.36282689016983   -1.34424612210378
C           3.15691198956110    2.91613587658754   -1.23971333097838
C           4.31462426198805    3.45636510833846   -1.72394707065797
C           4.66077566408787    4.74934811016823   -2.27180482860454
C           4.07025171450004    5.95681000483208   -1.99399452814716
C           4.52062524930194    7.18947503817890   -2.50564147551584
N           4.82956419922696    8.21784834615156   -2.91355741290467
C           2.98762296600051    6.12987125986515   -1.10926878138373
N           2.13282308669654    6.35052453845186   -0.37562449168480
C           5.92964537538807    4.59570042783740   -2.98152401325621
C           6.46608136817606    3.31909382083524   -2.68288334110015
C           5.51516072732317    2.58626550017298   -1.82103421097390
O           5.66082525467411    1.48942098050662   -1.32938085081877
C           7.67794564884084    2.89483295483532   -3.17007799091463
C           8.38800332435830    3.76660281249451   -4.00272319556235
C           7.83474430132962    5.03162634770752   -4.31030066257431
C           6.61299737394366    5.46509444485795   -3.80970979492054
S           8.87059372219329    5.94247735496388   -5.36789723529735
C          10.02004716874642    4.63101737821953   -5.37679217055115
C           9.64868598172796    3.56495057802994   -4.62996686840542
Br         11.60047655185993    4.79371956942166   -6.37466347522168
H          -3.24588817175617   -0.80780419991140    6.85117882541791
H          -0.72678340263712    1.49679735494786    3.18574871501000
H          -0.84441942768788   -0.59411611416022    8.28593373150338
H          -5.88069061335581    1.11445435106070    1.51542374818099
H          -6.42057981499321    4.00005713655387    0.42637627093018
H          -8.16545573264308    4.21859163405485    0.21720914696238
H          -6.32373281599190    2.43523124668951   -1.46730047785661
H          -7.05886888403658    3.96408544418628   -1.98490161345741
H          -8.07227554135665    2.54780938611334   -1.70435512026736
H          -6.92498523545116   -1.78061644614910    3.84526279530428
H         -13.69714267134280   -0.29936367201850    1.49863172500742
H         -13.46832891035468   -1.93090866334967    2.14429668832880
H         -12.26401147813429   -0.93262860590374   -0.49476946209205
H         -13.66500893974962   -1.99934343253233   -0.33167061635252
H         -12.06619679886377   -2.54784939362396    0.19045270221034
H         -13.15906966958115    1.22179120239376    0.34244423565851
H         -13.93030819524028    3.09435697250236   -1.25437250752188
H         -14.56794064833722    4.87249854984309   -3.09374021036731
H         -13.45810357477946    6.59971150777756   -4.64922060517583
H         -11.55621789536358    8.10046533180163   -5.88084203327298
H          -9.27056466324891    9.10578965431555   -6.50405697085037
H          -6.76155393986270    8.82783243078543   -5.97914381726899
H          -4.49670436626515    8.06941438716450   -5.99541917289667
H          -5.11949781661634    6.03719088714850   -1.50991177464863
H          -6.96291346724032    7.20924130968714   -2.59809448932574
H          -0.92790820833896    6.17962345126984   -6.45846102390601
H          -2.45930964025901    6.91483630627257   -6.93630650917380
H          -2.16440041152148    4.19480508307254   -5.57878570042499
H          -2.53046903643187    4.47278877113733   -7.28311514230514
H          -3.69324890522694    4.94125862059653   -6.04013724961436
H          -0.30581747716702    8.03584393682377   -4.96114501219236
H          -1.38338236058762    8.55661159704359   -3.66831285978855
H          -1.86567506335019    9.07438554966734   -6.64275569731845
H          -1.23922233115117   10.22907552580191   -5.47239038091426
H          -2.88644649501204    9.63110491005303   -5.30772929803099
H           0.46095295257686    5.64584640854889   -4.33333931378773
H          -0.75560397113169    3.80275129139226   -0.65393494926833
H          -3.00133780368022    4.75373216853760   -0.88775389395306
H           2.03749851714412    4.48053776442264   -3.10788313345872
H           1.12870051389719    2.94248559779584   -0.62530758447103
H           3.29820809397913    1.95986811780178   -0.74311468921115
H           8.06715922464824    1.92098740685421   -2.91768082424317
H           6.23026298565842    6.43635539333765   -4.07611867083985
H          10.23710229352623    2.67187909358812   -4.52400837852268
