94
 SCF done       -157.591006884668          0.000363459477
C          -2.36986311988613    1.11760675729857    1.84285003677010
C          -2.61019431029390    0.36292420391774    2.96755370019176
C          -1.64050360635082    0.08459458006875    3.95185964454628
N          -0.90172401563314   -0.18058264233275    4.79075726795974
C          -3.83061865297029   -0.24149023061205    3.32877255010036
N          -4.77524894363296   -0.76941527574136    3.71891054609662
C          -1.08892306858380    1.74011820189995    1.51390816618786
C          -1.22315227293710    2.43048177841358    0.28502998721278
C          -0.19208507103195    3.12753074820542   -0.29337129805274
C           1.03801671302116    3.14455667001028    0.37388816831753
C           1.16487308412322    2.45113694382361    1.59920854001209
C           0.11941227858507    1.74631374789292    2.18435536286676
S           2.76759252929628    2.60177285726031    2.25595532647883
C           3.23684848809795    3.58255146890653    0.89272130369783
C           2.24774501504357    3.78730397714362   -0.00844707065750
Br          4.99004673486701    4.24293394544845    0.78780146766167
C          -2.60606922718383    2.27027897140087   -0.20872917984442
O          -3.05985365034474    2.74724581619911   -1.23387298706517
C          -3.29616693629978    1.44245337934475    0.78239126829307
C          -4.60218281921351    1.01067703687029    0.71273210453323
C          -5.60147763695950    1.27266520978828   -0.22691763434752
S          -5.54240684408673    2.51370321273359   -1.45558014184602
C          -7.21538972777017    2.31017763271879   -1.76656697096889
C          -7.81551653859028    1.33629005247487   -1.02492047190440
C          -9.25285332648901    0.95060608980477   -1.14193852320067
C          -6.89305698654752    0.69521330354216   -0.15660235755004
C          -7.23479855129460   -0.40710113463108    0.67742473231683
C          -6.38320636732068   -1.41883777456099    1.00946010577515
C          -6.61671919389883   -2.44957616056252    1.94707896602153
C          -7.62223908277407   -2.45287466317831    2.87655076203041
C          -7.83920366449260   -3.39938383508275    3.88810218650479
C          -7.13774117821922   -4.54374573606718    4.19751607580796
C          -7.44513379363441   -5.39036027972793    5.29483527801826
C          -6.62771996412373   -6.46833500754833    5.43159767239410
C          -5.62111590543144   -6.54785477349134    4.44123843618614
S          -5.75644224509330   -5.19179271794732    3.33909776984870
C          -4.64767599982384   -7.51035080451490    4.29670831860464
C          -4.42088991325747   -8.64456626998756    5.12059264038400
C          -3.37962300092534   -9.41675117510373    4.73072204313948
C          -2.70491430242796   -8.94833446607054    3.56058231472303
S          -3.47962428138045   -7.46352736750723    2.99415455796619
C          -1.65120218416971   -9.51683913293719    2.93869063969980
C          -0.99043936765687   -8.94334774396864    1.75343562865392
S           0.62040453567508   -8.14705260540194    2.27745407748368
C           1.60067155563906   -9.05639374734934    1.03786507805257
C           0.61471502083532   -9.43609058617383   -0.06676936812756
C          -0.61624547935898   -9.96325720928606    0.68494500279374
C           1.26540075767049  -10.54342801308809   -0.91911532866887
O           1.17227947675154  -11.71733773297762   -0.64494786034816
N           1.99245623193976  -10.06485522809057   -1.94408129383562
N           0.33746440664417   -8.26339928968437   -0.87559832407185
C          -0.66288650353708   -8.35642146646314   -1.84184413840083
C          -1.47735163309930   -7.36347943324115   -2.19782833925091
C          -1.45411277752806   -6.01128543029175   -1.53940111376651
C          -2.46329557092812   -7.53779907471537   -3.31946093126896
N          -2.19088876710801   -6.58467386339483   -4.37461348114648
C          -3.15706761745335   -6.24931246876734   -5.29297563536562
C          -2.92347155681247   -5.77512259683164   -6.51168531801632
H          -0.32898452397952    3.64488309994122   -1.22997760477374
H           0.26922107399460    1.23653486159702    3.12095175801047
H           2.36341271698265    4.36757098382751   -0.90571478077987
H          -4.93311175263681    0.37899242723334    1.52762907153164
H          -7.68596687225089    2.92114374495029   -2.51356717881037
H          -9.74614027993034    1.55500492501551   -1.89828933532788
H          -9.76465245012205    1.09736965750113   -0.19116045299351
H          -9.34354995905138   -0.09953363588714   -1.41620203091294
H          -8.26101443985382   -0.44555082193968    1.01555220184377
H          -5.43392847471924   -1.46794834380804    0.48976631732183
H          -5.89358471286107   -3.25079319049506    1.95365932557348
H          -8.31487951750309   -1.62190910157058    2.87306063393461
H          -8.67208739264428   -3.19790824170579    4.55151324408401
H          -8.26494699699749   -5.16641651952938    5.95489065040101
H          -6.72008862659695   -7.20344236835899    6.21066765392261
H          -5.03727657334509   -8.84718104302798    5.97817105530147
H          -3.05631311065655  -10.31147873059014    5.23198136701241
H          -1.21906434028908  -10.41488028454066    3.35648574706966
H          -1.59584037061800   -8.13349174234479    1.33759025591909
H           2.03021295568517   -9.94472042819844    1.50083752889440
H           2.39597510074269   -8.40408868609892    0.68245071152318
H          -0.35807101807396  -10.92263361295146    1.13623554453427
H          -1.45361423479949  -10.11569397600820    0.00286250703223
H           1.97709342221085   -9.08068820739400   -2.15292608940476
H           2.45729172292002  -10.70665227825106   -2.56402547034611
H           0.24701441579970   -7.42857349846013   -0.30740377206022
H          -0.70745833272867   -9.31872977660573   -2.33540518026961
H          -0.46150250256785   -5.56436586644542   -1.58495321729577
H          -1.74851933375546   -6.07958576993090   -0.49045362626665
H          -2.14624876911290   -5.34567471118124   -2.04634690724591
H          -3.47591491185809   -7.33727000184627   -2.95155456477770
H          -2.43457362496457   -8.57785203360949   -3.68354857141264
H          -1.25535345291266   -6.64409472219396   -4.75306782809092
H          -4.16818525764796   -6.34465415101257   -4.91807736361192
H          -1.92364555487351   -5.67419127606087   -6.89851106504227
H          -3.72576519314159   -5.45560733076127   -7.14872049303420
