107
 SCF done       -200.323080299323          0.000497604483
C          -3.94193891170473   -1.60599975842230   -2.49763345229849
C          -4.64188606898666   -2.64765267467555   -3.05422298338096
C          -4.10862364515799   -3.93440162688677   -3.26369522872997
N          -3.72191399936770   -4.99809729208387   -3.45974882965419
C          -5.99614990206839   -2.58140736701930   -3.44176169759301
N          -7.10256324163683   -2.61925775133239   -3.74799515288364
C          -2.58676900901328   -1.67545503807409   -1.96233384291569
C          -2.28381866954197   -0.43997405098814   -1.34077331506430
C          -1.07677103101104   -0.19376862519853   -0.73496010691140
C          -0.12417217636870   -1.21879853407287   -0.73606439543944
C          -0.43516486533759   -2.44823766212997   -1.36177835027600
C          -1.65532985955295   -2.69621380307359   -1.97930786718421
S           0.88731393264118   -3.57177439489103   -1.25552994923872
C           1.82496388850878   -2.38996372204626   -0.38141394454450
C           1.18450718867074   -1.21481816409934   -0.17894074694146
Br          3.56275590690016   -2.81857873592474    0.18085867941098
C          -3.42976794373959    0.48329265529142   -1.49118015461780
O          -3.44498109936685    1.65570359517346   -1.17996459042885
C          -4.45832336430427   -0.28433775158681   -2.23030167355555
C          -5.60278213428405    0.26214870254587   -2.74373134679379
C          -6.21490878680273    1.45092061307415   -2.27418733321367
C          -6.93628830598876    2.28734476525989   -3.15874782820823
C          -7.52340443549436    3.53209521091596   -2.72897175370267
N          -7.90820607463290    4.42452339921635   -3.63868958672847
C          -7.90595025933815    4.09476437734954   -4.91173852230219
C          -7.56285891666251    2.76372138054424   -5.31030779980897
N          -7.04047616201176    1.92619258732043   -4.44643019485366
C          -7.78066958916668    2.36001543665715   -6.64930526950806
N          -7.99259059730559    2.09717681918366   -7.74471766256417
C          -8.27472329260607    5.07044560240517   -5.86469810237905
N          -8.61474088199862    5.83633271173428   -6.64863540784691
C          -7.60481867518854    3.87466106791888   -1.35030778099514
C          -6.89930840541308    3.02617602706192   -0.46688204193666
C          -6.21589984786517    1.83861043295666   -0.91340118984902
N          -5.70086603985029    1.15871918785725    0.10715291331279
S          -5.98652279817747    1.95494155510539    1.47230217215307
N          -6.81971078511752    3.18649981338245    0.85222146881982
C          -8.31933986436645    4.99240806905982   -0.87797436446254
S          -7.96517790831668    5.67270098583033    0.68222886332860
C          -9.10718426446509    6.93708152731188    0.49026413117467
C          -9.78296690240863    6.83877372249861   -0.70038291195999
C          -9.36259890566240    5.71266120156664   -1.48712602067945
N          -9.96915024697742    5.42627236962334   -2.64056430293276
C         -10.89656821882237    6.24659467187489   -3.08781323477156
C         -11.33685757649472    7.37924581522958   -2.28768951466798
N         -12.32657058929691    8.25414271475259   -2.66562541054845
C         -13.64673175293637    7.83360153143848   -3.09303764092549
N         -10.78035909035642    7.64354535900150   -1.13201879782577
N         -11.39545770772163    5.96920508785562   -4.35084264818760
C         -11.41359393315672    4.59558857282652   -4.80491213026989
C         -11.71725685005237    6.98055629229472   -5.18655345696455
C         -12.25969726150186    6.87942572980415   -6.43844873420869
C         -12.59316224632819    7.97244190115269   -7.25493749057826
C         -12.48603628354729    9.32795848264260   -6.99963059326825
C         -12.87450092278883   10.37342760936842   -7.86853782250241
C         -12.66719690990600   11.63825753974282   -7.38231529869810
C         -12.09451043412986   11.66017253021266   -6.10139532009697
S         -11.84472672256597   10.02972189390573   -5.53015569877050
C         -11.68919241166807   12.69727164637736   -5.26836053278854
C         -11.75078107535426   14.09423563885742   -5.40456651335444
C         -11.20142318448041   14.77171014465819   -4.34887609761095
C         -10.66681655914165   13.94843853741514   -3.33070538514859
S         -10.92290743422987   12.27007344654636   -3.75998418945860
C         -10.02054942548448   14.35033874387375   -2.18222329003920
C          -9.41967673401281   13.52626015676191   -1.21202917139953
C          -9.31232575732943   12.12849902810407   -1.17184285248597
C          -8.57428822436296   11.76201743690411   -0.02746598892528
C          -8.17563971361267   10.52320330855946    0.42901117318042
C          -7.41826064210179   10.48071601392730    1.60707219094862
C          -6.86043723078233    9.41964023851228    2.30640977195044
C          -6.18273626615686    9.92683472671968    3.45910701327543
C          -6.31887680114848   11.30401209874318    3.46770125627689
C          -7.08119323860173   11.70164436660460    2.32535410234463
C          -7.47246039737322   12.93265210281297    1.87284198660293
C          -8.22498154417661   12.98448156016334    0.67687789559243
C          -8.74044259904820   14.03902367709439   -0.04823003427465
C          -5.47624582917142    9.15063879201261    4.44932064344693
C          -5.35135966902352    7.82574577410214    4.44309247067639
H          -0.87279491306039    0.75910331479169   -0.27212705308043
H          -1.84322139613302   -3.64669861999162   -2.45039021917382
H           1.61513939595174   -0.37771674819099    0.33970786890410
H          -6.07799155722356   -0.19658183207617   -3.60221163386509
H          -9.24257750610431    7.67362023397860    1.25649932184621
H         -12.36810310098023    9.01929493428641   -2.00069429248477
H         -14.32741719587083    7.74272223544470   -2.24061867125044
H         -13.60662959303679    6.87288289756092   -3.59723716474870
H         -14.04705819133192    8.57591741369125   -3.78430876885168
H         -10.90079191694524    4.50568516264295   -5.76218469311407
H         -12.44483861476139    4.25233835301841   -4.91733985515640
H         -10.90563934911205    3.98474470603180   -4.06266169319839
H         -11.49961593690976    7.95100647893335   -4.77761062658616
H         -12.45512372499847    5.90358589610576   -6.85744923781669
H         -13.00437843231581    7.72816584350721   -8.22617297818120
H         -13.29603338027193   10.16661603533551   -8.83677818304896
H         -12.90350139349277   12.53937895499174   -7.91975255966368
H         -12.18983708357097   14.56612047014190   -6.26558577333307
H         -11.15419344527471   15.84474888779157   -4.28171433267832
H          -9.94768643743368   15.41939596913839   -2.02376340082856
H          -9.69837565362668   11.42168780114353   -1.87871969365105
H          -8.43454768769807    9.61986451640531   -0.10400029102148
H          -6.91531939813084    8.38398654860268    2.02539441796083
H          -5.91951764234017   11.97499511128987    4.20626559774008
H          -7.21595026813517   13.84164006288546    2.39890542042512
H          -8.65640613576682   15.08358932941976    0.19442768812089
H          -5.02578540183816    9.72865900816941    5.24680627716314
H          -5.78181879313291    7.20918467458821    3.67265909936745
H          -4.80911705903289    7.30991232520346    5.21644224802373
