85
 SCF done       -178.689729658290          0.000414556786
C          -4.36507984734023    7.66004704342984    4.86224814876493
C          -3.01546078843444    7.68768985277400    5.11450312321305
C          -2.45220933094684    7.78820523493859    6.40260975182285
N          -1.93519919871666    7.86178863526732    7.42534660876926
C          -2.01019442965380    7.63893836508888    4.12746723996472
N          -1.13564187462029    7.61651080996532    3.38315688003430
C          -5.42065912178964    7.78501023802540    5.86018757968576
C          -6.67416236015431    7.79754585595978    5.20025318176995
C          -7.86514851169032    7.91183381774600    5.87422438003375
C          -7.81778881798811    8.02726346059505    7.26766389078497
C          -6.56132209349617    8.01056412975180    7.91893172237502
C          -5.35656936133883    7.88949179148891    7.23735954925644
S          -6.73242472053473    8.15730367666617    9.64178006324332
C          -8.46531261906295    8.24109367488944    9.46599618382423
C          -8.89606089242445    8.16246008544564    8.18468805855959
Br         -9.54166651399841    8.42102667451291   10.99074814471376
C          -6.46895388266625    7.65803178373451    3.74614529893826
O          -7.32688248140020    7.48913469263920    2.90992249071412
C          -4.99176777650467    7.59640360664746    3.56100411486782
C          -4.38147735316752    7.34443420185095    2.36503782357449
C          -4.99032348503192    7.56397407570584    1.10975206882015
O          -4.52474438827032    6.90076593100275    0.01109925202900
C          -5.96007122707623    8.46263115724700    0.69370619028606
C          -6.80916680487403    9.58607160787049    1.12728736375213
O          -6.92664635886726   10.12948643430648    2.19256740690585
N          -7.44993710304834    9.97642301719670   -0.04446960784847
C          -7.06754131412762    9.28402583221576   -1.19382003895787
O          -7.47669720389368    9.50458876415769   -2.30454183967517
C          -6.08920784169053    8.31518595250775   -0.69945702956953
C          -5.19129573390953    7.32710384154689   -1.09467084428518
C          -4.92956021058781    6.80767248283649   -2.37685430489406
C          -4.03795278481107    5.79536880538761   -2.59214315329725
C          -3.65291372528107    5.18841512486733   -3.80788222106433
C          -3.74107992856882    5.72771359010512   -5.09325061897021
O          -3.44732285350791    4.98678006192263   -6.20907894300565
C          -2.97948912414240    3.72347545016502   -6.00176526896390
C          -2.78461614493269    3.21137176518357   -4.68813482674357
C          -2.28531879738326    1.94942102933229   -4.68467495814558
S          -2.04960646671174    1.37247968161689   -6.29220823474494
C          -2.62827328344946    2.84410760222944   -6.97322142785732
O          -3.10394532773669    3.94059933540234   -3.58272702749108
C          -4.04392278106430    7.07520659742436   -5.37038133139438
C          -4.12675489086276    7.55350742310392   -6.65797171593142
C          -4.36997645221105    8.88130052627853   -6.99466371247298
C          -4.38200306099620    9.32419943145187   -8.30573866288628
C          -4.62303615333619   10.62878773785634   -8.78662004275839
C          -4.53473992600536   10.74858237406363  -10.14647976819963
C          -4.21372908092901    9.54163390874790  -10.79645317085569
S          -4.04294364506027    8.24564852188798   -9.64007363995275
C          -4.01067723335373    9.28042429833988  -12.14441533449807
C          -4.07958388969439   10.13914979661730  -13.25956677548202
C          -3.79396532406900    9.52035861090125  -14.44157498236186
C          -3.48128657472612    8.14154117421733  -14.31886725887130
S          -3.57643813635370    7.66543628150379  -12.63703050120424
C          -3.14952845287005    7.29986749562708  -15.35290555579589
C          -2.81482297916493    5.93453589129374  -15.27691392739749
S          -2.44005223081206    5.05352512294203  -16.75494199430368
C          -2.14176480387727    3.56360664639249  -15.95517895297217
C          -2.31589988878119    3.70806267050454  -14.59882448891475
C          -2.69254513079796    5.03722657134312  -14.22646796753551
O          -2.84485267499163    5.12296373344418  -12.88978613620327
C          -2.57655536373015    3.88371053564967  -12.40489938413833
N          -2.66778370010594    3.70882440341550  -11.00735332292448
O          -2.42620571878932    2.59479544342090  -10.57418316068323
O          -2.97625495068253    4.66595229266199  -10.32781810081459
C          -2.24959009035802    2.97817013158960  -13.37991127247025
H          -8.80305165953358    7.91971867286341    5.34176364961925
H          -4.42560783217044    7.87647883009080    7.77936079179278
H          -9.93069227962945    8.19768494404613    7.89567031607870
H          -3.37171000086597    6.95700867796777    2.33202926985357
H          -8.11883113633303   10.73283073984005   -0.06640344949325
H          -5.52505453530903    7.23678245798029   -3.16625660559432
H          -3.60969322213954    5.31787323070706   -1.71921447273758
H          -2.04680121924608    1.33694669315217   -3.84077293726365
H          -2.67212356404006    2.97015868831313   -8.03507667108741
H          -4.14892775705831    7.75530752147483   -4.54315742120354
H          -3.99061049616096    6.85071152700054   -7.47011131589133
H          -4.55379819136548    9.60451721668364   -6.21152838812329
H          -4.85413337608199   11.44067444111439   -8.11980663060170
H          -4.68633463011024   11.66622694904266  -10.68637130920734
H          -4.33402737672314   11.17977014757075  -13.16591459009657
H          -3.79346596024779   10.00967326013785  -15.39953844582488
H          -3.13864750228940    7.72697326242509  -16.34668224870049
H          -1.86329773983610    2.69654902871089  -16.51617833471010
H          -2.00105630346371    1.94827691620079  -13.22934621662980
