121
 SCF done       -199.170977051160          0.000871789184
C          -7.10789692548888   -2.55084102129021    3.80373482780758
C          -5.89407381746528   -3.09517821933449    4.14171895760408
C          -5.72558554026223   -4.40906065288133    4.62456577815116
N          -5.52067054348270   -5.46994726876988    5.01390174073847
C          -4.65017635934692   -2.43242872672748    4.09232647640987
N          -3.59620481980626   -1.97467496521187    4.09817063853665
C          -8.39589603820972   -3.21335678993064    3.95484081086379
C          -9.41817508287326   -2.29682821739473    3.61181584164554
C         -10.75259394089588   -2.61766507524650    3.66315454209865
C         -11.09715941513144   -3.90858178827954    4.07651921591895
C         -10.06907557038896   -4.82141601116938    4.41187558522211
C          -8.71979775750240   -4.49669174347079    4.35799911242744
S         -10.71476632133259   -6.36323900359565    4.88957799125256
C         -12.33395969920475   -5.76608864398517    4.63945417157745
C         -12.39113229072223   -4.48062842092738    4.21834242443769
Br        -13.79636845865130   -6.89700672402683    4.95716758055982
C          -8.81635082647474   -1.01083816955978    3.20686194319813
O          -9.42787633783737   -0.04711101097119    2.79580347068241
C          -7.34982291508814   -1.20051506355711    3.31956123246939
C          -6.37677320170496   -0.35461488053207    2.87366497280960
C          -6.45841533206372    1.02712711876450    2.50471659136492
C          -7.40804862224869    1.91039350371761    3.04782164004120
C          -7.39396437188283    3.23253669716757    2.67882420846244
C          -6.40622405580230    3.71463595959647    1.79905035535271
C          -5.45046146269997    2.85586857247934    1.26681738592143
C          -5.47867185741260    1.52873100186978    1.62751560357755
C          -6.57323094089363    5.14034534886034    1.65011110684869
C          -7.67008592386696    5.54660241539035    2.43085207883797
C          -8.28105993752395    4.36540785282869    3.15719263917482
C          -9.74208051904719    4.21888843325668    2.68251126070921
C         -10.54520758780359    3.08576713789569    3.30685297834053
C          -8.12645677882981    4.46708869784332    4.68948665263410
C          -8.87193068854804    5.61065276752656    5.36553699292005
C          -8.06982967626032    6.86135692837411    2.42514112542839
C          -7.34370823191345    7.80959922397968    1.69233689646546
C          -6.22730449533137    7.39397694442809    0.95683481319757
C          -5.84971085512930    6.06791068914288    0.91189175936511
C          -7.70074441856719    9.21525562797943    1.71950616811019
C          -8.91584500097486    9.68860604055346    2.02937737980426
C          -9.28608908381881   11.08438574816638    2.14358231841873
C         -10.50981127076290   11.51250762469249    1.70997169542667
O         -11.42882485463904   10.73124363959029    1.11075675572151
C         -12.63407056911565   11.34408210236322    0.72235972055345
S         -10.74979314454759   13.22050691394637    1.96053148104430
C          -9.18866310285897   13.34469844726966    2.72301108642820
O          -8.73782321024108   14.51520755367683    3.20260791398660
C          -9.59872705905500   15.62513361875054    3.12266938247971
C          -8.51264359691844   12.14076461983957    2.75805631722111
C          -7.26232878330783   11.91608227364362    3.40950316177075
C          -6.55151701680806   12.82450358298481    4.13020367538526
C          -5.32293934402873   12.52173915413630    4.74358136405719
C          -4.64909481290936   13.37093369906359    5.58461493802218
C          -3.38975439688001   13.15590908518937    6.19370033716524
C          -2.98251186665033   14.16369812404706    7.01535486323936
C          -3.90645245310709   15.22549088617430    7.12132048368237
S          -5.29799582819157   14.92164630571877    6.10189310729260
C          -3.81942119358618   16.34763900354009    7.92380542647067
C          -2.75603654486211   16.73381101014226    8.76757249166173
C          -2.99314956721276   17.87873864457544    9.46526108625569
C          -4.26325000025335   18.46528682295107    9.23139793721972
S          -5.13050898044104   17.49967530713940    8.04354151051922
C          -4.73416387789182   19.59060697663735    9.85709506416443
C          -5.99462838240175   20.21568135814450    9.75287323974400
C          -6.37162209014479   21.35048677929415   10.47501622044667
C          -7.71202407896541   21.67797024704639   10.15033855667649
C          -8.54813308962426   22.67797925535034   10.58934283394218
C          -9.85483981352589   22.71542248061835   10.06972513969167
C         -10.91585111289557   23.57164287696070   10.31119052284640
C         -12.03766291629155   23.16166158708760    9.51808777946132
C         -11.66242839916439   22.05168405140594    8.78760377602344
C         -10.30275809587510   21.73130390687545    9.09874340354266
C          -9.47473005687393   20.73694099827555    8.65712926620137
C          -8.16278552535563   20.69407422181083    9.18021296531374
C          -7.12044403022311   19.82145265504970    8.94720537541461
C         -13.33897260392551   23.78291811157582    9.47663406149958
C         -13.71344349379943   24.84715139688439   10.18192227656354
H         -11.50668260260953   -1.89405909622545    3.39556406981263
H          -7.97555384185863   -5.22994045473112    4.61926688214475
H         -13.30655217596394   -3.95552644268931    4.01535460592925
H          -5.38551805241564   -0.77871693027290    2.75939169918093
H          -8.10650698590901    1.54772645413563    3.78116403045140
H          -4.68913497030263    3.22760016374120    0.59764333017703
H          -4.74011739033503    0.84790453554919    1.22899059062689
H          -9.71912992746192    4.07838035901059    1.59845582842005
H         -10.25264816449561    5.16514944684166    2.87378943609256
H         -10.13152933862701    2.11750615035138    3.04520963829568
H         -11.56515248946470    3.12495941154983    2.92874996841506
H         -10.58657368303027    3.17625331524625    4.38934697247161
H          -7.05913310862280    4.56619448430746    4.90711594786874
H          -8.45819251787202    3.52181807141371    5.12159841207579
H          -8.46027323031503    6.57264263314189    5.07357634842093
H          -8.76921410268012    5.51732138291486    6.44511979967098
H          -9.93151704294123    5.59065750631766    5.12520278050378
H          -8.92657233687018    7.18231859870342    2.99492940614992
H          -5.66648909240671    8.13026393326798    0.39860708717480
H          -5.00294504777066    5.75822148267830    0.31771331655823
H          -6.91357036641242    9.90288570887056    1.43868370481210
H          -9.74236816853886    9.00275427725434    2.16306523064273
H         -13.16031882738664   11.76552713855620    1.58557320113670
H         -13.23875085175809   10.56188041296480    0.26824532520888
H         -12.45351260464769   12.14163145863601   -0.00618973115125
H          -9.05347443414773   16.46116485328204    3.55595475718430
H         -10.52093793050960   15.45051419407621    3.68696645855493
H          -9.85684394679499   15.84920059150904    2.08187358193736
H          -6.88488631210632   10.90523038293621    3.35168107474351
H          -6.92878823153723   13.82820268725210    4.25756961566162
H          -4.87225294782499   11.55680367484582    4.54794940315653
H          -2.82390046782628   12.26091214894463    6.00241605634246
H          -2.05421634545090   14.16336021599457    7.55832647264220
H          -1.84840190393748   16.16117058029370    8.83554328548785
H          -2.29740541229018   18.32096713745076   10.15695540886723
H          -4.04390911591270   20.05548853094750   10.55202727066601
H          -5.75082902453430   21.88620472273506   11.16957196198601
H          -8.22296311001561   23.41299754512970   11.31228502400708
H         -10.90530145198623   24.40937855022480   10.98413562751122
H         -12.28085857652551   21.50739381280783    8.09705236372347
H          -9.79828748729869   19.99868956091691    7.93649597006781
H          -7.14275271400543   18.98093796906305    8.27908561283329
H         -14.04557856935676   23.31359250906705    8.80263806610578
H         -13.04824350718032   25.34709667908444   10.86484318493427
H         -14.70538072313197   25.25684001599186   10.10007843582906
