83
 SCF done       -155.409718895830          0.000931265331
C           0.50651204785597    1.08049067706443   -0.67284147392298
C           1.40322050374666    0.46681034494991   -1.50655120446598
C           2.74788719428105    0.20375587252449   -1.16981267726567
N           3.85078270240473   -0.03283047299517   -0.95676095984003
C           1.12583468978836    0.02109624465970   -2.81620915796175
N           0.99051064076060   -0.36614436439876   -3.88851766870224
C           0.77781077373995    1.55229629141911    0.67505296336804
C          -0.38695805051325    2.16904123915053    1.19861430999628
C          -0.43096428419449    2.72049909415050    2.45628868537992
C           0.72448134250315    2.65464137564710    3.24121693342290
C           1.88197298783160    2.03250489505030    2.71278725067635
C           1.93019691493596    1.48021667307024    1.44091619867688
S           3.19768585658404    2.06199851271388    3.84832141392976
C           2.18932294734141    2.89781756920102    5.00001100059025
C           0.93228187894723    3.14302815032583    4.55989475617511
Br          2.89226784864276    3.36909123869826    6.67327026045229
C          -1.46404229333876    2.12836275238823    0.19059729002988
O          -2.54334667399285    2.66477879632624    0.25812039046368
C          -0.89522118689172    1.36833967503106   -0.96514193166808
C          -1.59506468700608    1.05919816374411   -2.06918867678232
C          -3.04023046150420    1.28301179894698   -2.19645521365148
N          -3.82437406297991    0.67599456311871   -1.30940998953137
C          -5.12651698714096    0.85846006902298   -1.45706027855435
C          -5.66053153509013    1.62094051931236   -2.47863699514325
C          -4.75505397189813    2.20028794476627   -3.37865250052296
N          -3.44021517407526    2.01245795385211   -3.22184552749948
C          -5.19561064557592    2.99101995187162   -4.50365798453809
C          -4.33852347715195    3.68292955733512   -5.27632428247010
C          -4.73586366164230    4.44234936623257   -6.42275271606655
C          -3.95114736572672    5.25892903592891   -7.14530025881704
C          -2.54141014474223    5.62030170305135   -6.81943082797167
C          -4.47897116842688    5.96352407001614   -8.37137725172225
N          -5.65263513745679    5.36053336904479   -8.94227127158991
C          -6.83322276164636    5.97295690950166   -9.05337776851460
C          -7.95014446244058    5.39633190800449   -9.59909333428934
C          -9.20384841085699    6.00146986154595   -9.77355208202222
C          -9.63019068497499    7.26521937988252   -9.42416969213438
C         -10.91686597059894    7.79794352725568   -9.67212381516662
C         -11.10271604202421    9.07733964241519   -9.22966062333258
C          -9.96942511734074    9.62518594385578   -8.59914653016542
S          -8.66194914350825    8.47167454759302   -8.59228727276308
C          -9.77020599854766   10.86816346472024   -8.01800946616799
C         -10.63107664852791   11.97356675659887   -7.89778100188879
C         -10.07091475983492   13.03381709024868   -7.24379461346321
C          -8.73798307214629   12.81805805702677   -6.81152389885773
S          -8.22255138170723   11.21388170692672   -7.27882056471067
C          -7.96216987530516   13.71607792967540   -6.11726143137825
C          -6.64354801358477   13.54079327305100   -5.65767707822553
S          -5.88094604013213   14.82332668219199   -4.72059733228879
C          -4.39796539206431   13.97315875839250   -4.50108876691377
C          -4.46224613038105   12.74802922005183   -5.11797014330450
C          -5.71962218844337   12.51260471675950   -5.76523962194516
O          -5.72133611725933   11.30269496408220   -6.36263748947290
C          -4.50265164599417   10.76049195567431   -6.10665478847405
N          -4.24099381437776    9.49155410283962   -6.62588954745861
O          -3.14590813950254    8.99679430738385   -6.38718218634293
O          -5.10420679764038    8.93883215543084   -7.29290810170688
C          -3.69091170763587   11.58080173120269   -5.35876001843749
H          -1.33173008363516    3.18681652118499    2.82343628208306
H           2.83611210651412    1.01986080440051    1.08368081571955
H           0.18137739727201    3.64803145842719    5.13963387904067
H          -1.12362096295060    0.61131764976808   -2.93280745589450
H          -5.75304129122182    0.36197169142278   -0.72667297748093
H          -6.72383735997438    1.76389699874931   -2.58511380948155
H          -6.26098547975079    3.01354332628629   -4.69106904363838
H          -3.29204599954268    3.63605862981426   -5.01460919177230
H          -5.77300936934077    4.32739447609643   -6.71667846618829
H          -2.18986155043092    5.13362510159629   -5.91712583601385
H          -2.47537963009467    6.69991421687299   -6.67638058142467
H          -1.87820023368371    5.35731580831018   -7.64310222892896
H          -3.68379169233432    5.99285994791061   -9.12738855562693
H          -4.72194829977047    6.99897971564731   -8.10751583886586
H          -5.57475567460892    4.39599114793520   -9.23513775591411
H          -6.84210529147751    6.98943814341318   -8.69137786339732
H          -7.86381681347749    4.37478459293196   -9.94876193111821
H          -9.95541916899824    5.39065567374733  -10.25940485631815
H         -11.67270309141075    7.21984135382822  -10.17531872005933
H         -12.01819907327842    9.63103043031745   -9.33755875637563
H         -11.63201743976576   11.96484884648325   -8.29182823697467
H         -10.57403436324333   13.96583704583644   -7.05513892266806
H          -8.41420249175745   14.66975473741236   -5.88036502373798
H          -3.59899280786042   14.41949700218990   -3.94875603419521
H          -2.69316837891007   11.36012345596386   -5.04152432531261
