88
 SCF done       -192.009311901110          0.000607087139
C         -15.22203202258441   -8.40185091105850   -9.70326945945467
C         -14.18143709829023   -9.00737341763245   -9.03916568732142
C         -13.46738314029542  -10.11692284369347   -9.53423516993284
N         -12.84798921354970  -11.02055480907958   -9.87935855349084
C         -13.67180509471016   -8.62432631460181   -7.78202189945007
N         -13.19469796568079   -8.38211862577875   -6.76511542322942
C         -15.73722777925812   -8.81217426061146  -11.00826182817181
C         -16.80851633431245   -7.95694419870153  -11.36295564985356
C         -17.50352016752610   -8.08588670912908  -12.53998264494024
C         -17.12285680581045   -9.11020976081149  -13.41364349827326
C         -16.05039004366031   -9.95864670285759  -13.05285253441199
C         -15.34763598150452   -9.82759854636464  -11.86068912744370
S         -15.74188550753386  -11.15394626537504  -14.27633404758742
C         -17.04280964989795  -10.50726871996189  -15.24069321746608
C         -17.67531811359129   -9.45011091927573  -14.67912076830532
Br        -17.43986187146957  -11.28609937002212  -16.90044153277114
C         -17.01428870593722   -6.96234686312732  -10.29035751852139
O         -17.85275387165210   -6.08220750030869  -10.28040417401749
C         -15.99612654366899   -7.26650148808300   -9.26317516529820
C         -15.82824158722002   -6.55441451426960   -8.09484946493319
C         -16.58537486770022   -5.44248242909178   -7.72862129559639
C         -16.36604730476732   -4.72251156246854   -6.57335451574905
C         -17.06086815246110   -3.55285808408611   -6.17662820777546
C         -16.60923203410712   -3.00436777401193   -5.01601459680790
C         -15.54073130355684   -3.72189200770932   -4.42723174174509
S         -15.13564649845132   -5.12174401002753   -5.39551378435115
C         -14.84736046697101   -3.40501668233149   -3.27582995899661
C         -15.00742884132434   -2.24885756453229   -2.46694335830712
C         -14.12631726777019   -2.17411216456589   -1.44046256198954
C         -13.22952963462469   -3.28296412107711   -1.35533253424817
S         -13.57426680872814   -4.41864470239346   -2.65097103071294
C         -12.19834839943108   -3.37544591394422   -0.47086635717158
C         -11.27905884476586   -4.46809055404772   -0.29628658506223
C          -9.93600814173019   -4.19777502845872    0.02234731404267
F          -9.54495660258734   -2.92172106907897    0.13299167325386
C          -9.01147094619365   -5.20333022846366    0.20046867800342
F          -7.72388627305574   -4.91079368535649    0.46953930676458
C          -9.36448338689280   -6.55920259312394    0.11677773011768
C         -10.70290717775347   -6.83796987304550   -0.18475681758070
C         -11.62644009999981   -5.82460885397309   -0.37836335394492
F         -12.89947757022941   -6.17160927199112   -0.59304422155318
F         -11.09987305806606   -8.11278261623490   -0.30983572012544
N          -8.39576297521066   -7.52723743898538    0.26831845416060
C          -8.54641388298580   -8.74285871372394    0.88323260800710
S          -9.76255449738364   -9.00763491430179    2.08987668983443
C          -9.08579678911819  -10.56976741097530    2.40931478894288
N          -9.70642053756602  -11.36117498056873    3.38420133991658
O          -9.23410088481396  -12.45938885192461    3.60696020737465
O         -10.67492410586116  -10.87864092347193    3.94500854048159
C          -7.98917970995169  -10.85528123139180    1.64306799687262
C          -7.66702581912283   -9.81944726312914    0.74255286581423
C          -6.58718030475588   -9.92722319255875   -0.20097851129324
C          -6.44580982729144   -9.21334116430702   -1.33773940801550
C          -5.38293021648513   -9.37797700992503   -2.26603381219137
S          -4.09077637745232  -10.50316229696225   -2.01883926411441
C          -3.34264587262005  -10.10066921294222   -3.49699622631563
C          -4.03739715409185   -9.13148939326704   -4.18805858929089
C          -5.21172109014109   -8.70782551548480   -3.48180632754205
C          -6.02568819921916   -7.71124393774155   -4.05257319124836
C          -5.68448332308909   -7.17461120246701   -5.26009538217138
C          -6.52813593646919   -6.10074414175930   -5.88537420842352
F          -7.57304332363594   -5.75746029761909   -5.10901066955552
F          -5.84519001240294   -4.96354208927873   -6.09873145514346
F          -7.04805519009491   -6.46358092962613   -7.06694601845629
C          -4.52033959239288   -7.60150950180195   -5.97965224336627
O          -4.33269281034998   -6.98138543382020   -7.16423905234743
C          -3.22275005271476   -7.34647635776296   -7.94997567245918
C          -3.71129008858491   -8.56586015713325   -5.44274904477049
H         -18.31599841608156   -7.41795378359111  -12.77971049956930
H         -14.53750454489425  -10.50018708983524  -11.63448612665402
H         -18.49724730705634   -8.93000039924534  -15.13624300248103
H         -15.04784924358365   -6.86023634875952   -7.40898441142158
H         -17.37307093842497   -5.10928065233082   -8.38920907887117
H         -17.86411521365149   -3.15429268270602   -6.77029183642965
H         -17.01400016129905   -2.11431611814783   -4.56929158557833
H         -15.75354152057038   -1.50527035566792   -2.68078568092652
H         -14.08040450527224   -1.36841711222502   -0.72975047076636
H         -11.99416556665019   -2.50082496739341    0.13324382271207
H          -7.43857757763472   -7.20870928753275    0.15774740297661
H          -7.45614300659428  -11.78596223100005    1.71491870265948
H          -5.86245166088561  -10.69982012236523    0.01990007529319
H          -7.19782672817775   -8.49424443788589   -1.62764725146121
H          -2.43592928151604  -10.59340463760140   -3.78486879806572
H          -6.91409683770153   -7.37131048617431   -3.54432121512968
H          -3.28594246480850   -6.73164673499590   -8.84548040169730
H          -3.26413316091240   -8.40364562371191   -8.22898045233706
H          -2.28230164277291   -7.13957924879387   -7.43027638077367
H          -2.82622046789518   -8.91307058767057   -5.94896792205053
