101
 SCF done       -192.000541256091          0.000449109628
C          -8.47977631193069   -0.67596142041267   -2.47480320681706
C          -9.46729626865101   -0.80081718086294   -3.41628577921631
C          -9.38598140908439   -1.65313253648075   -4.53755266504674
N          -9.37377489993083   -2.32403239742798   -5.46871759627537
C         -10.69695377570159   -0.10871703207017   -3.39406603221217
N         -11.71478728813511    0.41957355104986   -3.44713881273981
C          -7.22140424446097   -1.40937896247572   -2.45197900506830
C          -6.51415136577482   -1.06642506968854   -1.27236801910825
C          -5.28147585796490   -1.59191786129206   -0.96755558938972
C          -4.71932973156315   -2.50106061778437   -1.86941118771870
C          -5.43218234530655   -2.83710435408090   -3.04609489295901
C          -6.67834808245025   -2.30534580335604   -3.35403840253900
S          -4.55249828500217   -3.97049059277064   -4.02418358432579
C          -3.25737346126178   -3.97993705701447   -2.85640832882624
C          -3.47114401102208   -3.17598825954431   -1.78734240819382
Br         -1.74490824347306   -5.04435617887944   -3.16211046511534
C          -7.30278609097264   -0.10313736873534   -0.48606900529314
O          -6.97751584320307    0.41573545629879    0.56353753855203
C          -8.52342199341998    0.16075400402305   -1.28917156364227
C          -9.39000351898743    1.18860097232401   -1.05939920057191
C          -9.48167070044227    1.95464899575227    0.13109277909114
S          -9.75305076696607    3.67128401279656   -0.00976342217832
C          -9.67380259626912    3.89267475169351    1.70819092536576
C          -9.50027808075509    2.66886702097328    2.34763040737021
C          -9.39414765623165    1.58615672717445    1.46414388905050
C          -9.41367179438597    0.18442781882876    1.99565565190168
F         -10.72837861793967   -0.17215808249475    2.22116680299928
C          -8.60547153233396    0.18300192050398    3.29310630288984
F          -8.47407260110920   -1.08708591597811    3.79169287136628
C          -9.23097054670787    1.10304098524405    4.34437762312219
F         -10.47867858796516    0.66582784110127    4.70109563283032
C          -9.34714667835179    2.54737591820399    3.83605219424555
F          -8.19884613474699    3.22726777682000    4.21733934171077
C          -9.77627051864312    5.16512967913028    2.32476283423589
C          -9.90242341944816    6.32037247414657    1.62676545079233
C         -10.02248794744159    7.63618093786374    2.13851650292128
S         -10.45887926611267    8.88634658478835    1.00377322240319
C         -10.47709258085395   10.10894285335003    2.23466669025799
C         -10.15076975671568    9.55049447557328    3.46658826921213
C          -9.86734150526019    8.17577022795695    3.41004076480490
C          -9.42535442516663    7.40255101927032    4.61763834254531
F         -10.44847683865649    6.59587622537425    5.07289694002218
C          -8.98504662622465    8.36995814082206    5.72117733793700
F          -8.70047010302585    7.68365179873445    6.87099918881715
C         -10.02476897353405    9.46134818504794    5.97214802617662
F         -11.26957192320231    8.94398837086369    6.20720392900531
C         -10.09892947886427   10.35505725548959    4.72984590302555
F          -8.97807310706584   11.17284153223445    4.73186353279500
C         -10.78391843829686   11.45949983494154    1.94569217059723
C         -11.01990678761236   11.91505202133673    0.68859932943512
C         -11.34611152085768   13.24424208745103    0.34612607420041
S         -11.54515069248522   14.45833809732301    1.58086356775855
C         -11.88377214995503   15.64386267486435    0.39236131438829
C         -11.83530019604247   15.17615135872409   -0.88514218140212
C         -12.15503382178736   16.05259762394783   -2.05105129197332
C         -11.51900430808012   13.78337885921093   -0.93665211172543
C         -11.39535739454459   12.96623667421820   -2.10864619524704
C         -11.08849928669816   13.37021404494488   -3.36156281937844
C         -10.94141263763274   12.50964647472455   -4.49557195400976
C         -11.08977042233971   11.16599065353298   -4.51871506342515
C         -10.90020399110324   10.38828636330733   -5.70347922281400
C         -11.02058359495311    9.05225171689857   -5.78625915402775
C         -11.39603370370841    8.17968677182464   -4.62570135109847
C         -10.77558779986390    8.30707084292083   -7.07955977693761
N         -10.17792226919070    9.05680309071210   -8.15016589913504
C         -10.92977353144170    9.90128147725586   -8.93474285195981
C         -10.44985936627265   10.92593891104401   -9.63151480659309
H          -4.76876146654169   -1.31187662477617   -0.06081886557977
H          -7.17929321648372   -2.58867969895539   -4.26453084092833
H          -2.77758364179357   -3.06174359738058   -0.97447099390659
H         -10.02189492760155    1.52587304405857   -1.87223673105121
H          -9.02346705067722   -0.56159355112733    1.30107539056664
H          -7.59298916883961    0.53689669881865    3.05636704068483
H          -8.62425819407706    1.08827084230686    5.25965259625146
H         -10.17754406716577    3.03419180257591    4.36654947413285
H          -9.76910782592244    5.15870626233238    3.40072348694475
H          -9.95052980282808    6.25194115883581    0.54565450988015
H          -8.59400810933568    6.72412551627350    4.37933842778069
H          -8.05226076773830    8.86220935079871    5.41116853730606
H          -9.74851833650444   10.04955475125680    6.85617601831670
H         -10.96575061517761   11.02341043122502    4.81104319830591
H         -10.80711757708943   12.14949944650305    2.77718472396166
H         -10.94654919882479   11.20376827561047   -0.12385302839420
H         -12.11413346449922   16.64354090373199    0.70632166019921
H         -12.68907989069382   16.93737596601369   -1.71179936594557
H         -12.77393140700269   15.52018774510254   -2.77017826004555
H         -11.24406258532906   16.38233188344361   -2.55010995293391
H         -11.52935592197842   11.90730540437723   -1.94005511527593
H         -10.89118625402851   14.41357923347658   -3.55132082804908
H         -10.67269656559228   13.00263961680011   -5.42196852534862
H         -11.34935290329913   10.63390323653037   -3.61599392849122
H         -10.64113324414071   10.94832417149361   -6.59267960529058
H         -10.58992420568133    8.15105201250720   -3.89222647319820
H         -11.58939316526262    7.16254372371836   -4.95729358402186
H         -12.28832256465122    8.55429122796577   -4.12810622109549
H         -11.73318376423818    7.90851725819143   -7.43742225540076
H         -10.12882934193289    7.44704555828700   -6.86418681476422
H          -9.23974850147010    9.38353438077801   -7.96303901821451
H         -11.97438487274296    9.62606390157477   -8.99649100318597
H          -9.41175348723840   11.20844316907954   -9.58171796339587
H         -11.07760618807741   11.49518609836353  -10.28963319169462
