103
 SCF done       -183.190511455884          0.000452055322
C         -15.05122580486370    4.22959161272964   -0.88037134653490
C         -15.94584156058699    4.99060691620787   -1.58915680660783
C         -17.30000800366351    5.14409695266171   -1.22989039180149
N         -18.41200223579190    5.29495493522342   -0.98617119900548
C         -15.64761918296130    5.67705669009508   -2.78303661410811
N         -15.46741656790387    6.25620147956375   -3.75843806447224
C         -15.33910518012211    3.51596254909844    0.36074082184552
C         -14.23133477424734    2.69675513557087    0.68785330049024
C         -14.16473935789919    1.96332818176186    1.84649810549940
C         -15.22240752631580    2.08470292315108    2.75367799553304
C         -16.32464633343116    2.90612298466778    2.42045926418956
C         -16.41161050808955    3.61350320631612    1.22718981770926
S         -17.49453454155698    2.95466382678237    3.70511810006373
C         -16.48993418917504    1.90067211234465    4.66246327849125
C         -15.34531054459795    1.51706757490159    4.05183282601703
Br        -17.04495329941173    1.41611853095356    6.38282330509803
C         -13.17199164612430    2.89319981819367   -0.32311942108041
O         -12.16231381575370    2.24027673281777   -0.46791306753501
C         -13.65143753819102    4.01071126323894   -1.18194213482186
C         -12.87011354725933    4.68887007155684   -2.07262676483670
C         -11.44298274197673    4.66326240307938   -2.06891692823604
C         -10.65329784899945    4.63702879846528   -0.93669387788977
C          -9.17685334993323    4.49260411532328   -0.93324345232559
C          -8.43480452732418    4.46254186969140   -2.12945517922434
C          -9.01683714568005    4.59837062190759   -3.34264119217900
S         -10.70305679749075    4.76671522820519   -3.64305197968393
N          -8.67660417285003    4.40530877006515    0.28138073286383
C          -9.73581198822954    4.51431210398234    1.13513936542033
C         -10.95242879918696    4.69090268907716    0.42711813573244
S         -12.28742859901296    4.88007582518305    1.48878932199517
C         -11.24366662939739    4.58121817271345    2.87977472662906
C          -9.91279233351455    4.44265172550180    2.51727794846029
C         -11.88393927106435    4.45991151642406    4.13000503473571
C         -11.27986964032345    4.25503404686240    5.33199455787334
C         -11.99174461545845    4.07449038317802    6.53525893734448
S         -13.72726993779971    3.89912247588169    6.55607446890746
C         -13.75543711787341    3.81690272744078    8.30222354287047
C         -12.45787178862922    3.88213837702293    8.81722901268953
C         -11.47945600504967    4.01761145855058    7.83060234782568
C         -10.01390743064692    4.08030368776393    8.13489496224626
C          -9.76222857268905    4.27522555418079    9.62739682751468
C         -10.65171505074934    3.32692248943142   10.44529227618215
N         -10.35178911899190    3.28596364935079   11.86469124584726
C         -12.11183211887708    3.74943032759006   10.26492831892291
C         -15.00388224497647    3.71070367636593    8.94272226376465
C         -15.27412682846354    4.06917780709529   10.23668318399721
C         -16.53280652434812    3.95314363350408   10.83110238646615
C         -16.84165346880275    4.50956738562819   12.05438740570588
C         -18.06737682717510    4.44970155476974   12.75032154295123
C         -18.09129554137067    5.17193132090863   13.91017787045646
C         -16.88868980838046    5.85187655554480   14.18279370880416
S         -15.70319154303595    5.50617281089102   12.94606787221425
C         -16.61381490855037    6.73849230966390   15.21219988158285
C         -17.45750038561334    7.15337305489020   16.26040057873526
C         -16.90430520203270    8.10625227520770   17.06580425360635
C         -15.59718522789321    8.49826897024922   16.69597954653152
S         -15.07947020471940    7.57715368706898   15.29772190414785
C         -14.85369588619117    9.47825238676058   17.31653812418369
C         -13.59049287009356    9.95641785790291   16.96382272522219
S         -12.75793979586307    9.38354252503510   15.53792774928603
C         -11.50044805942285   10.51470803851252   15.72361384630155
C         -11.66682629375887   11.31616814362172   16.83574039238031
C         -12.84448149467601   10.98726267714668   17.58147377873213
C         -13.13614103334335   11.69180502949781   18.77257534092775
C         -12.29403827011227   12.73506710954546   19.13964394642915
C         -11.14971579758649   13.06766109798219   18.37774548584964
C         -10.82524358405305   12.36954770616310   17.25774015026433
O         -12.48149018820937   13.46569101551192   20.26377314610604
C         -14.22992343009123   11.29638797435149   19.67189079942467
C         -15.16902245470328   12.11621476321004   20.12892070705004
H         -13.30108770617408    1.35709315282740    2.07065352596755
H         -17.26886286903989    4.23354595108832    1.02375800620944
H         -14.61000491789270    0.87375308620901    4.49938869198293
H         -13.33308368814903    5.29851997410248   -2.83821981997113
H          -7.36443081031887    4.34275263120093   -2.05615430168704
H          -8.44543501770099    4.59469007169643   -4.25670023220030
H          -9.12232923690150    4.25844207878218    3.22041005094863
H         -12.96611345650497    4.51471051420637    4.10721767723620
H         -10.20162088108817    4.23683551287971    5.39516927382050
H          -9.54910233184039    4.89184520906830    7.56981248305045
H          -9.54968441073442    3.14426538258111    7.80588268523316
H          -9.98744656564684    5.30696777446099    9.91071297392835
H          -8.70822872711924    4.08745012287201    9.84742120909687
H         -10.52428571801981    2.30619333505253   10.06399488705180
H         -10.43975348207470    4.21148548093945   12.27202478284855
H          -9.40256332304934    2.96605766478275   12.02114983294178
H         -12.25625850448171    4.70938645514411   10.77247764799262
H         -12.76468622770920    3.01979446478633   10.74666083777168
H         -15.82904430389368    3.37979671496593    8.32561602471045
H         -14.50216542482150    4.53031615663427   10.83460642366804
H         -17.31532318948796    3.42263842373575   10.30554536529511
H         -18.89820204333995    3.88041476966010   12.37234729714838
H         -18.94480196095444    5.24303023979212   14.56038895771840
H         -18.44523415112673    6.74957343819291   16.39157455104847
H         -17.40176231224758    8.54957738027992   17.91066317651736
H         -15.33372131537766    9.96817310460078   18.15200564221857
H         -10.70182721475379   10.55081066645277   15.00981044242720
H         -10.54175008177735   13.88282022560446   18.73600361871411
H          -9.94244928835026   12.60468304395973   16.68441884065094
H         -13.26015325312840   13.13880429536857   20.74016267347130
H         -14.19836179685559   10.26504599610020   20.00622528211934
H         -15.25641264765404   13.13550505821944   19.78620056643050
H         -15.92131350727911   11.78386774261719   20.82462217591474
