98
 SCF done       -186.351560693806          0.000555457631
C          -5.97010312843237    3.57341809830191    2.97374961230591
C          -5.53057218208055    2.61366695687227    3.84718217192070
C          -5.30761715708574    2.83120779659810    5.22254247756986
N          -5.11476385873546    2.94407551577892    6.34805565149742
C          -5.25074311441857    1.28269240788765    3.47662645487144
N          -5.01476019884061    0.19063820250629    3.21246483523465
C          -6.27734792510722    4.96099016150531    3.30376934574881
C          -6.71167678510938    5.63079072237468    2.12728477225953
C          -7.09569480217196    6.95084681836216    2.12382459001882
C          -7.05298915262909    7.63839733255750    3.33938015047003
C          -6.59679414131824    6.97398146251577    4.50416106299170
C          -6.20690916244859    5.63906920804769    4.50518862461252
S          -6.60663737544309    8.02564417046694    5.88185283243074
C          -7.22589523722054    9.31747712259258    4.89606821333869
C          -7.41694673323799    8.98443395376196    3.59782974742586
Br         -7.55221814010398   10.99475860767107    5.65067019311977
C          -6.68069039906722    4.69053612846553    1.01047033553904
O          -6.98484119045836    4.90856719208792   -0.16336145974086
C          -6.22516163969020    3.40722904996922    1.55859882324902
C          -6.11011436005974    2.29054114743887    0.76874746988863
N          -6.39842421346949    2.38446418444142   -0.53587116892684
C          -6.37074401942904    1.42082399725255   -1.48582621212640
S          -5.99138634484942   -0.23237395802727   -1.12781688837402
C          -6.19184027172447   -0.61320981115551   -2.80848683142826
N          -6.00999842532362   -1.94478168515858   -3.20608812953313
O          -6.15337559475430   -2.20396457999695   -4.38607565267322
O          -5.72261291608347   -2.74359288501153   -2.33320152897169
C          -6.52269110243077    0.46480763580973   -3.58548532013346
C          -6.63544727187444    1.65447633285236   -2.84356106587897
C          -6.96074876233858    2.96154894048637   -3.35608624491394
C          -7.13198255304409    3.27985302964976   -4.64983031841500
C          -7.45082960018343    4.60545075743342   -5.12675073254947
C          -7.05521043875436    5.77791749947879   -4.61160355616211
C          -6.13157610446555    5.95301247275271   -3.44850941092681
C          -7.53661960306215    7.07161929112858   -5.23118977706704
N          -8.34926958467620    7.81070144466204   -4.29252264035179
C          -7.89635331337464    8.79582549460409   -3.51143642827552
C          -8.58527902103147    9.29904492162384   -2.43972795803253
C          -8.15944810375360   10.35694038728125   -1.63312093265772
C          -8.62987721977307   10.64208687781541   -0.33233882516883
C          -9.72988430235527   10.13404150905490    0.37504405221310
C          -9.98690451621327   10.60558533622837    1.63558434873206
C          -9.16963757747389   11.59455953117798    2.21551775410369
C          -8.06734183683560   12.08552163366008    1.56152499845248
C          -7.76032365367986   11.60156338775656    0.28181873542409
C          -6.74780223622371   11.97999222291604   -0.63773941786042
C          -7.10071244796718   11.33618286297484   -1.91350541018533
C          -6.69003111293311   11.72793791692652   -3.12409408041343
C          -5.68362667964886   12.84056375678878   -0.45955248823252
C          -5.07840275739913   13.23622910537076    0.73029253764750
C          -4.37719630646460   14.52736995465975    0.80243414997988
O          -4.15615823335180   15.29575988188479   -0.11320887250756
C          -4.03367764313738   14.70994893295654    2.23334825597196
C          -3.49527724757980   15.78950822351791    2.86629313053605
C          -3.31184300233230   15.74181977761148    4.26919763781801
C          -3.70058429779016   14.57489660462673    4.98654195695291
C          -3.53353636604290   14.54214571396835    6.38417707052423
C          -2.99782458510571   15.61571575000453    7.03976395707575
C          -2.60908485831531   16.76648471800749    6.32970170731189
C          -2.76297167212862   16.83020440127817    4.97254856050187
F          -2.08580092516961   17.80771915976618    6.99722270550492
F          -2.83791566009899   15.58077510837465    8.37209468433227
C          -4.24594274542820   13.46463002064241    4.29761130391791
C          -4.39842755740511   13.53086535821564    2.94159680986885
C          -4.93773312401519   12.56748133311958    1.97977917703941
C          -5.04642590045060   11.20970135476625    2.22310066911931
C          -5.41915002497893   10.24546460750129    1.27641481688370
N          -5.70247140808931    9.38298220831018    0.56802185683251
C          -4.66244055548480   10.60101885478496    3.42696778826970
N          -4.36744937332696   10.02184655839140    4.37693961003896
H          -7.40303731513706    7.44791071680431    1.21751455871150
H          -5.86935427608588    5.17289389865997    5.41583797516179
H          -7.79036265445206    9.65670030221161    2.84811439297329
H          -5.79469075875967    1.32732423885836    1.14792578005239
H          -6.68616434624755    3.34438931524846   -0.81161716707913
H          -6.67978561718329    0.37628866589964   -4.64438301860748
H          -7.10474960427236    3.73705099478987   -2.62079283881071
H          -7.07382380147709    2.51427265457630   -5.41096245925624
H          -8.04757399060693    4.62271986027411   -6.03162516503748
H          -6.67611755905435    6.04340315729215   -2.50812307792060
H          -5.54096399038062    6.85931299140435   -3.56910345272469
H          -5.45471890666639    5.10583717769035   -3.36618169731685
H          -8.13318697404279    6.87028472719166   -6.12562160349740
H          -6.68465582743129    7.69720086459108   -5.51205130009928
H          -9.22926520593586    7.38100373433980   -4.04003778344677
H          -6.92236897280486    9.18564429151901   -3.76841292769689
H          -9.49094404576991    8.78711199605493   -2.13889813879114
H         -10.38163666427506    9.40340527024316   -0.08058303152502
H         -10.83425679867221   10.23526590989407    2.19291784088844
H          -9.41936353901204   11.96873605295604    3.19758180459909
H          -7.46411383977316   12.85665979205089    2.01522246488400
H          -7.09992286490315   11.31829002436605   -4.03103498080528
H          -5.96965881576086   12.51934803902579   -3.24264569134827
H          -5.26798564853229   13.31752705967310   -1.34157755177386
H          -3.21653091206378   16.67239450716542    2.31140929100266
H          -3.82575474005792   13.66690511052122    6.94298823028103
H          -2.46212762976007   17.72094286500064    4.44346533316785
H          -4.54169494529755   12.59742759308101    4.86629992599388
