114
 SCF done       -200.119567796280          0.000692754735
C          -4.42250083295403  -18.17946594859439   -2.33778424820600
C          -4.99085852245219  -17.29961789049251   -3.23072361772098
C          -4.89362297693970  -17.42232109298434   -4.63081106832658
N          -4.85255930201293  -17.46426136214172   -5.77824502798035
C          -5.74476741858744  -16.15735350500661   -2.89701955917064
N          -6.36838630610283  -15.20871781185279   -2.71628204659303
C          -3.63827052199333  -19.35768654305308   -2.70413221931370
C          -3.22687875804823  -20.01526624582042   -1.51938588504210
C          -2.46519830600041  -21.15713927332333   -1.53131866561008
C          -2.08778374010662  -21.67737491764948   -2.77449477516124
C          -2.50320612395624  -21.01448863413520   -3.95219341231696
C          -3.27593855592793  -19.85895273741229   -3.93946116619694
S          -1.92492130160115  -21.82224569235664   -5.37853649151934
C          -1.14284144495757  -23.02268867722480   -4.38495756729464
C          -1.30539235772714  -22.83138410850102   -3.05461834954112
Br         -0.18378049784346  -24.41508140595070   -5.19833505091148
C          -3.73879300740777  -19.27270974475033   -0.34779046305553
O          -3.56937285070032  -19.56716557153793    0.81984109057356
C          -4.47780855432447  -18.12134787355716   -0.89956673147555
C          -5.09435826996658  -17.14846776130537   -0.13972315525365
C          -5.11331934846108  -17.10254198244607    1.25074122971174
C          -5.71041967185127  -16.07165000210748    1.95004041532200
C          -5.74966465397885  -15.90505907087348    3.35362878404991
C          -6.37107695224606  -14.76220098341420    3.76408801021654
C          -6.86098819628148  -13.97284872505843    2.70171781842219
S          -6.51730139682491  -14.73477418201160    1.16342652485042
C          -7.50195404134391  -12.74952923582250    2.76462050952205
C          -7.78847903639333  -11.96356361866648    3.90544603575389
C          -8.38341131248342  -10.77276717295069    3.62666814810067
C          -8.61217403315097  -10.55423237936940    2.24350615314952
S          -8.03605724143351  -11.93946513425205    1.31360189004242
C          -9.16351484759946   -9.45288652409891    1.65998808824196
N          -9.37631338068024   -9.34712861880566    0.32243273224276
C          -9.74198534352184   -8.21542900819774   -0.34525336616084
S         -10.77505360526392   -8.38605976362891   -1.73673081117553
C         -10.85593675126849   -6.65940319434467   -1.87563875855950
N         -11.60312477818454   -6.12133733283251   -2.93103701525756
O         -11.66159783254775   -4.90977176107587   -3.02196168546626
O         -12.14572961626596   -6.91753634172778   -3.67777284795835
C         -10.13687793873480   -6.00687194019489   -0.91266389191286
C          -9.46200108620342   -6.88006503808391   -0.03493689988027
C          -8.52185911496729   -6.35051477567827    0.92415870621270
C          -7.46155892471187   -6.98908968678376    1.44718194737778
C          -6.51049171490927   -6.39484389244959    2.34884592854765
C          -6.10323164061019   -5.08548753802414    2.37662665696309
C          -5.09787555457997   -4.54997787723573    3.33386487479379
C          -4.51467477577781   -5.34307999052982    4.34289745746717
C          -4.76955675898206   -6.66218119851954    4.46765480689198
S          -5.83100314453878   -7.56463805919163    3.45220784204321
N          -4.80316667670090   -3.29062302470792    3.10874579738853
C          -5.54037916514841   -2.91515525689077    2.02277256804127
C          -6.35910269449690   -3.96719073711497    1.55698248937682
S          -7.25406696600017   -3.48845716223845    0.16540990874920
C          -6.51197031107640   -1.89486711535634    0.19944223487970
C          -5.63454401727418   -1.75110621879949    1.25313787267225
C          -6.86713715718399   -0.97607176364144   -0.83127612103972
C          -6.26703450333419    0.21487105046489   -1.02953887400139
C          -6.56691899151033    1.16486924574888   -2.07277194925465
C          -5.68311706967655    2.24007976965227   -2.26408439934048
C          -5.92084242284291    3.15229038672105   -3.26094335249135
C          -7.05273388307806    3.03051755338402   -4.08511619920942
C          -7.94172804929601    1.98155572479696   -3.89866591602517
C          -7.69209542739261    1.06016573752329   -2.90191441622023
C          -7.04956495596052    4.12372575364378   -5.03491351455617
C          -5.91572117163571    4.91777392089063   -4.79804080134593
C          -5.10236073293823    4.36000476589047   -3.65342410750498
C          -4.99115734877818    5.36691414438545   -2.49425309720396
C          -6.34986650224975    5.82128246763344   -1.97493616847145
C          -3.69208709015947    3.95057981497600   -4.11859107694930
C          -3.71555754412248    2.94862375359167   -5.26667298109984
C          -5.67093669638474    6.03057273093166   -5.56593310304844
C          -6.55447286738462    6.37590773536162   -6.59710738562452
C          -7.67959077395106    5.57570947400772   -6.81870915715798
C          -7.93445634024797    4.45713115322256   -6.04948077222556
C          -6.25960582974731    7.55909743530512   -7.39342162579211
C          -6.91725887964021    7.98559112529091   -8.46594789529291
H          -2.16725569375194  -21.63436818403006   -0.61086369715769
H          -3.56512456916678  -19.39207373603667   -4.86588882637912
H          -0.89120100418257  -23.47535169689500   -2.30043967435926
H          -5.59754290654993  -16.34038205338711   -0.65669797679484
H          -4.63022026703035  -17.88933893218637    1.81148278882873
H          -5.30996864337484  -16.63152878809400    4.01349445352706
H          -6.48768628865719  -14.47178552623129    4.79280466491894
H          -7.53535211616891  -12.29620398048074    4.89554628534848
H          -8.66136176044257  -10.03939995991104    4.36179040755795
H          -9.45145537907946   -8.60478866397131    2.26241714380844
H          -9.32968152706642  -10.20643070561857   -0.21472705321958
H         -10.06257895975425   -4.93523153723521   -0.86805788983483
H          -8.68369567555023   -5.31254696781048    1.17263352828692
H          -7.28651000709319   -8.03598080717826    1.23964662148891
H          -3.82080097850002   -4.86252377299938    5.01580824730057
H          -4.31177906096208   -7.27638053923271    5.22518668221756
H          -5.08887974061093   -0.85023087422297    1.45972720789042
H          -7.65265478275928   -1.31014189307098   -1.49485106682370
H          -5.45407216693301    0.49668519843829   -0.37300714425492
H          -4.81408816725663    2.33042718684699   -1.62728326784835
H          -8.81723224537512    1.88449092095995   -4.52325390197890
H          -8.38819336602172    0.24929773559405   -2.75328421233362
H          -4.42533882894575    6.23552343845867   -2.83804848183044
H          -4.42847606888710    4.90347830440054   -1.68081105770253
H          -6.92050918920593    6.30390985304996   -2.76531443133385
H          -6.22189586377079    6.53004314505336   -1.15982612984244
H          -6.92358217513809    4.97313656448013   -1.60763696214608
H          -3.15564258370992    3.51818614451457   -3.27105303328651
H          -3.15358688853873    4.84761641821409   -4.43194078757062
H          -4.23247158698169    2.03804691663256   -4.97169724380839
H          -2.70024345462698    2.68925853064206   -5.55810802556532
H          -4.22594393412645    3.36722888938831   -6.13129814961107
H          -4.79900038117596    6.64429540488179   -5.38579334713190
H          -8.36973362616175    5.83811989826149   -7.60538788033012
H          -8.81015238233415    3.85343705241471   -6.23693582474246
H          -5.39903406813234    8.12361514344933   -7.05335031736010
H          -7.77149000927139    7.47132519822063   -8.87149755324106
H          -6.61272723811495    8.87519603765895   -8.99021292436881
