85
 SCF done       -176.949960073278          0.000825681207
C         -20.43221637291654   -8.40079988908834   -3.15038190746515
C         -19.48099719186073   -9.07852473864960   -2.41774505407635
C         -19.60819998835713  -10.41806787119499   -2.00433034764525
N         -19.64315104237086  -11.50533986053855   -1.63219243937513
C         -18.25047599096077   -8.55738335460441   -1.97480459584251
N         -17.22591441912045   -8.22667281691943   -1.57010170993516
C         -21.70085424855864   -8.97227645326493   -3.60325287968760
C         -22.40652535508818   -7.98417842548791   -4.33105087621405
C         -23.64089190738128   -8.21092220617757   -4.88576516982288
C         -24.21067686337055   -9.47806921610989   -4.71396892306231
C         -23.49842447120047  -10.45906686988141   -3.98778917386835
C         -22.24697357908141  -10.22842067034841   -3.42671798625183
S         -24.38286979576671  -11.95313459347778   -3.89492908822345
C         -25.68117389424691  -11.24519245145868   -4.81887349622879
C         -25.46527905297982   -9.95887190655428   -5.18082980340131
Br        -27.19883071917730  -12.27314475636160   -5.22116427615701
C         -21.60346907613702   -6.74190284337737   -4.36624547823143
O         -21.91851884552070   -5.70203063508070   -4.91434203902938
C         -20.37622406462542   -7.04070804571528   -3.60840686656158
C         -19.35652556246450   -6.13145347914003   -3.37589660511587
C         -19.33484290975857   -4.82450238297325   -3.83578723963348
C         -18.29965241418200   -3.94374472001822   -3.55374284808501
C         -18.18866268975409   -2.60455469271085   -3.97140556984117
C         -17.05623017203819   -1.97294327422378   -3.52622281482321
C         -16.23162142284803   -2.79122878642722   -2.73880994240928
S         -16.91863649319593   -4.38734620375162   -2.57826622560932
C         -15.02604885378048   -2.46991184593307   -2.11617553022117
C         -14.33454195607142   -1.24766896374135   -2.11708411209046
C         -13.17994149394011   -1.27262821962865   -1.37948080085530
C         -12.91617281600357   -2.51279442379007   -0.76924547819316
S         -14.17550134691550   -3.65807209926255   -1.16602338075939
C         -11.83908892357033   -2.81732586208633    0.04741738459560
C         -11.58694847906458   -4.03253624720975    0.66066262769399
S         -12.56787692836981   -5.48307374363345    0.51114684862148
C         -11.56464494212038   -6.45805686808243    1.59240882347534
C         -10.48208191575374   -5.65423462238879    2.04710999244898
C         -10.52112916125107   -4.34450782665771    1.51586520526281
O          -9.47990823106101   -3.60939750528929    1.92623770615276
C          -8.75558446835665   -4.43460434253187    2.72813318018085
N          -7.56821852103805   -3.95045131095178    3.30216991218178
O          -6.96840808104814   -4.72346638214405    4.03873878215452
O          -7.20643732306588   -2.82643771370019    3.02882238530187
C          -9.31079889085136   -5.68896291398367    2.83526000617245
C         -11.97299939192110   -7.76316724725819    1.77939959891839
C         -11.47287929421604   -8.74315631369970    2.63280230792001
C         -11.91454902758832  -10.07771314789767    2.70844455205150
C         -11.26050132750266  -10.83696080735840    3.64852073992719
C         -10.28804802342492  -10.12057285354289    4.35884007913303
S         -10.22296318051337   -8.46886974722230    3.80422837032889
C          -9.40781377344243  -10.48878216398533    5.37554120638492
C          -9.17756088885010  -11.72127449424597    6.01173006576176
C          -8.19674005124968  -11.66528258632570    6.96380855022739
C          -7.61919427143492  -10.38210711840210    7.13094908410496
S          -8.36788319681347   -9.25455975794044    6.02451937254371
C          -6.60270138127021  -10.04252969550745    7.99437268507143
C          -6.05803202329286   -8.76079784234961    8.19382147713053
S          -4.60801199604646   -8.57161155536934    9.17646651345352
C          -4.54596919522618   -6.86703215409675    8.99762958453045
C          -5.59229386168338   -6.42593255644413    8.22094001103178
C          -6.43233111007863   -7.49121048555939    7.77179534793543
O          -7.46300049518656   -7.00268870925040    7.05748182812339
C          -7.29497005630837   -5.65504328632618    7.03306602575784
N          -8.28811185541909   -4.90238754843712    6.36258664543485
O          -8.21251736825157   -3.69359652845909    6.44013428239369
O          -9.16457721786812   -5.51231953312699    5.78412961149482
C          -6.18656487716191   -5.23479405662461    7.71403025814490
H         -24.15368537919069   -7.43585100406444   -5.43362763046961
H         -21.74654904611223  -11.01108830741394   -2.88161362133546
H         -26.15990550969626   -9.37091869307853   -5.75287193352522
H         -18.50860187193974   -6.45667489194376   -2.78505676528928
H         -20.15673121154933   -4.46272200667116   -4.43647124691248
H         -18.94225840706612   -2.14279471063938   -4.58405521991156
H         -16.80842216133492   -0.95015149189107   -3.74652371788639
H         -14.69365952728563   -0.38462970684421   -2.64765503734552
H         -12.51908892042495   -0.43267643388161   -1.25844409360350
H         -11.12282747002924   -2.02970725166246    0.24259166584906
H          -8.89256174859818   -6.47686078615670    3.42167891185625
H         -12.82522566160979   -8.06605439542623    1.18237920522404
H         -12.69508666959123  -10.44996317623959    2.06882836442298
H         -11.46494155677139  -11.87552610190463    3.83720217300334
H          -9.72608337746801  -12.61052252833768    5.75710811752902
H          -7.87497173615277  -12.50547869353794    7.55345213225043
H          -6.15840897941723  -10.84042676412670    8.57386465678233
H          -3.76516210116380   -6.30490312716050    9.46597068611382
H          -5.85801392408352   -4.22262770489784    7.82514495935301
