117
 SCF done       -198.632007941033          0.000851036108
C          -5.39621104548619   -3.67039296076749   -6.04809611477948
C          -5.73563378081359   -4.95771936344347   -5.71288973551855
C          -5.30572147306075   -6.09906002376675   -6.41752302397555
N          -4.98688029365712   -7.06144970164760   -6.95673387575960
C          -6.55401276801006   -5.29368261510629   -4.61638365770259
N          -7.21289079560056   -5.60844954312447   -3.73036965269899
C          -4.53594011509847   -3.27516541285600   -7.16074254075713
C          -4.40988081207834   -1.86161114242690   -7.16443637891295
C          -3.66097700143876   -1.18406644206072   -8.09522726693294
C          -3.00485697003304   -1.93581538479395   -9.07537781057108
C          -3.13639708806538   -3.34454744152137   -9.06638579473391
C          -3.89234182907492   -4.03032071616649   -8.12161940671117
S          -2.24920009106805   -4.07649630581321  -10.36784529787638
C          -1.72095746766617   -2.50193920454799  -10.89951894541716
C          -2.18340882240319   -1.47916826291029  -10.14181760034395
Br         -0.61038473641387   -2.35592105382113  -12.40417032192385
C          -5.19722465017002   -1.31539034677801   -6.05545393265875
O          -5.32785808572396   -0.13042152440048   -5.74976613599688
C          -5.80789628206787   -2.45985769676045   -5.37919178591205
C          -6.64334070069159   -2.28952914180968   -4.29682371844626
N          -6.89906350031561   -1.05304992576382   -3.86139495419189
C          -7.69502807786217   -0.65709682635856   -2.84004589394456
S          -8.55160348985073   -1.78112982738172   -1.83301036742853
C          -9.22683192859784   -0.44059241949284   -0.96308934133934
N         -10.09091082262908   -0.72226993160794    0.10140457664454
O         -10.55946234045668    0.22034359112180    0.71359666223647
O         -10.30957168934071   -1.89852379898480    0.33549671542171
C          -8.81969912409112    0.78322462801266   -1.42543132037961
C          -7.92935564489797    0.68586211792589   -2.51036802050779
C          -7.31655434406145    1.78326307774911   -3.21267485110261
C          -7.71052139660797    3.06639779279985   -3.13798084921794
C          -7.10426139240385    4.16067001551241   -3.86352467195470
C          -5.80770565279898    4.07884441609852   -4.39566597697957
C          -5.29057866949404    5.13840304024717   -5.10089825236852
C          -6.04996188216198    6.31035556281265   -5.27008261856479
C          -7.32773503763873    6.41070850393656   -4.73691081094193
C          -7.83985837482065    5.34027580848946   -4.03522238960043
C          -5.26306739610480    7.27056402647832   -6.00490750233507
C          -3.99920114852338    6.71275417716962   -6.26969347059120
C          -3.91102353318837    5.30379009531440   -5.71156841913499
C          -2.88104235719817    5.18036879351782   -4.56890100023613
C          -1.42334240283319    5.40053580571213   -4.95240540764243
C          -3.65375675505813    4.34590583532990   -6.89315518305116
C          -3.53939432846196    2.86363353100355   -6.55998348446821
C          -3.07596024226792    7.42625789141505   -6.99388906128367
C          -3.38348591929961    8.71935649560533   -7.45641372359743
C          -4.64748011418497    9.25887501585139   -7.16745638666486
C          -5.58266676724986    8.54648931878222   -6.45099777444991
C          -2.38997696734639    9.44994983147056   -8.19247433822187
C          -2.61029630238454   10.56602362576142   -8.93656696704464
C          -1.60249424201548   11.28626515164236   -9.60184736874634
C          -1.84555332195992   12.37315639043759  -10.40456181285739
C          -0.89622114310379   13.19231109986307  -11.06125977926910
C          -1.43911430799917   14.20067723085305  -11.80079402285673
C          -2.84968090340296   14.22635756163266  -11.78704796741153
S          -3.46851461602736   12.94080871488029  -10.77341636600644
C          -3.69800350163937   15.07820394765666  -12.47086594909668
C          -3.36031246947195   16.16587822274878  -13.30504069455527
C          -4.43699338051634   16.78332593452043  -13.86598183264636
C          -5.69003317807121   16.21610983675593  -13.52205902184716
S          -5.43372372819602   14.87697653370271  -12.41352068745619
C          -6.90806375132337   16.61616903326789  -14.00881515037305
C          -8.17785601232132   16.05365211995802  -13.76023440881007
C          -8.54613331407923   15.00642139549799  -12.91251525069074
C          -9.93765032877071   14.77662907514580  -13.05431972341333
C         -10.77519568485774   13.85698756980814  -12.46461511504312
C         -12.12645725697504   13.86400688945579  -12.84770006715928
C         -13.19915403857270   13.07376154174675  -12.46581328204756
C         -14.36852182909870   13.48739067062530  -13.18027682891398
C         -14.01746465541460   14.54271851206880  -14.00098523734404
C         -12.62315743878543   14.81447372226776  -13.82823522204081
C         -11.79757902292250   15.73868863246363  -14.40763336410589
C         -10.43631751114363   15.73113193928049  -14.02924227992900
C          -9.36668694004700   16.50001398496650  -14.43854772597057
C         -15.65778534830309   12.85630370038569  -13.02359031541297
C         -16.75691371603035   13.16255924655519  -13.70745718225763
H          -3.58587831096052   -0.10843475310355   -8.06859852231621
H          -3.96167275422928   -5.10450431741009   -8.15902262732521
H          -1.95675424780740   -0.44512404997011  -10.32718371634555
H          -7.11420870461293   -3.11543769107852   -3.78032117207789
H          -6.41863544973898   -0.31914453471057   -4.41761163078539
H          -9.14807667622278    1.70167646454891   -0.97524010917747
H          -6.49385121018466    1.53195813249079   -3.86649614680716
H          -8.57377152881892    3.32494394545145   -2.53967430690213
H          -5.21600815786346    3.19514058338664   -4.21886054919614
H          -7.90494639129015    7.31484955991315   -4.85906472334441
H          -8.83263615006544    5.40270273946580   -3.61279794957500
H          -2.98667999741526    4.18873855414691   -4.12544887089194
H          -3.15552096085360    5.90841565715620   -3.80044200236071
H          -1.11498263011718    4.72798284074015   -5.74847656867886
H          -0.79176979150685    5.21005753629790   -4.08681106454696
H          -1.25480969425918    6.42569993650890   -5.26914557282030
H          -2.73453658572985    4.66673340124483   -7.38734528049406
H          -4.46892211287210    4.48423813303703   -7.60900301540788
H          -2.77587179296675    2.67936771487248   -5.80890362328427
H          -3.25711411565881    2.32270414639477   -7.46168106517934
H          -4.48346305248663    2.45609021725024   -6.21146744093036
H          -2.11244832884130    7.00690933174886   -7.24334609916052
H          -4.88669427833771   10.25657081326513   -7.50077535640943
H          -6.55225663608727    8.97299171985312   -6.24091606896479
H          -1.38248513797605    9.05262342050759   -8.15469853949230
H          -3.61721092695757   10.94504189610855   -9.05230638670941
H          -0.57246591965542   10.98154558744977   -9.47018519055331
H           0.15986307133831   13.01187943397991  -10.96234636354060
H          -0.86456074180764   14.91555139860362  -12.36249414841935
H          -2.33954648832973   16.46168859458689  -13.46862581601312
H          -4.37281780150222   17.62699823941020  -14.53096037922388
H          -6.88600459784597   17.45147525798163  -14.69883973767501
H          -7.90320302666121   14.45497001829045  -12.25449302426461
H         -10.41078715355064   13.14498597332968  -11.73789155477343
H         -13.17243933989758   12.27039680045279  -11.75087863484668
H         -14.66511904696187   15.08291672217450  -14.66556644539465
H         -12.15859030303259   16.45014773377982  -15.13738451585643
H          -9.39230948652667   17.29987111333371  -15.15759095068642
H         -15.69374620853740   12.06709622083560  -12.28250345437897
H         -16.76674943235334   13.93500712907768  -14.45706178474567
H         -17.68667384860883   12.64692373626517  -13.54110485413684
