96
 SCF done       -189.698205069845          0.000382141433
C          -1.05945842658018    1.82551612547250    4.28717546762110
C           0.24702583404250    1.75087553910437    3.87464706548776
C           1.31924110734675    1.38458136678748    4.71217920169714
N           2.22761546600594    1.08821598390833    5.34925689755838
C           0.69478605823468    2.07508153590774    2.57685102400434
N           1.14188721297067    2.35398694458738    1.55662811367972
C          -1.53837621801529    1.62667333293788    5.65046866992110
C          -2.91963201096072    1.93501664569702    5.69299759327905
C          -3.66126407460116    1.85029433528559    6.84540951874803
C          -3.00688955935902    1.44882645150878    8.01507028605877
C          -1.62752033170962    1.14036967352998    7.96219592838128
C          -0.87785147992174    1.22107010673770    6.79473000558854
S          -1.02073130292062    0.65783351437462    9.51798076186304
C          -2.60677399690532    0.87731581227034   10.20815895819011
C          -3.54382516682636    1.28921882606535    9.32231957553774
Br         -2.87668308093310    0.54141634325356   12.03385990064747
C          -3.38485900586349    2.30923380929517    4.34074763745132
O          -4.53566460949257    2.51302548087231    4.01492903282688
C          -2.18537130163875    2.22587092280631    3.47417200864592
C          -2.21571789081803    2.30718926482104    2.10955675358752
C          -3.25306988832328    2.91623648879127    1.35847672590887
C          -3.59260165809635    2.43330684588302    0.07462973037587
C          -4.69909494094272    2.97861691613473   -0.66283784271262
N          -5.04371202174064    2.45695456377767   -1.83869805996494
C          -4.35718995700259    1.44424749608982   -2.33100530287825
C          -3.24923776207486    0.91393968614902   -1.60330247113192
N          -2.90163572415249    1.40047353569023   -0.43487032389694
C          -2.50911239220885   -0.16727607646251   -2.14774384287962
N          -1.94144334301455   -1.04435896336719   -2.61647208748499
C          -4.73363306626010    0.89951043120937   -3.58017828392278
N          -5.01989554367106    0.44035409824476   -4.59065146150876
C          -5.48206799044009    4.06512582198003   -0.18005538807835
C          -5.05819631398428    4.62622818563647    1.05188556687536
C          -3.96347793380852    4.05760463499699    1.80155862197157
N          -3.69054442121272    4.76904591394480    2.89101745761484
S          -4.72751534954941    5.98842434187412    2.99840710197332
N          -5.55980432693059    5.70348636915777    1.65047092845602
C          -6.59637736411156    4.51469745591747   -0.90599244584046
S          -7.06513351543508    3.72413286520768   -2.40697786667803
C          -8.40281291500070    4.79004277251933   -2.55112129951013
C          -8.46850624962556    5.72811300978067   -1.48608987648309
C          -7.45805886928779    5.56699056335775   -0.56759088084403
C          -9.64006995381781    6.61406517491606   -1.67533965369106
O         -10.01785232947167    7.53127655222955   -0.98885882626787
C         -10.25412404990631    6.09864966008551   -2.93321929346372
C          -9.47816318515009    5.01510744703775   -3.41573432070401
S         -10.13520598332228    4.35359481623479   -4.85145409288003
C         -11.46378157628413    5.52255416136367   -4.81590766812542
C         -11.35089912048161    6.38326695821596   -3.70674554094795
C         -12.42782110657328    5.45752032577293   -5.81327123462045
C         -13.54455455839567    6.26195999872411   -5.98591561312161
C         -14.50225016637669    6.10536588781959   -7.00697291385229
C         -15.52323837943641    7.01842286838073   -6.97086866837466
C         -15.41298702845656    7.94377075099808   -5.92291241326285
S         -13.97982603788282    7.61949559016194   -4.97679426711183
C         -16.25936207077541    9.00179513650586   -5.60284472107101
C         -17.45795870894388    9.38113964778285   -6.23339305040320
C         -18.04848480005632   10.47808207603394   -5.67114845627967
C         -17.34669046942284   11.02536357483489   -4.57387278909477
S         -15.90173502692706   10.07317815661330   -4.27836642080515
C         -17.73241299695407   12.13783388062875   -3.85835694277298
C         -17.09115359029515   12.76477801942494   -2.77929772134014
C         -17.58060947030671   13.92406032857510   -2.14191802796352
C         -16.68963555912017   14.29288258385999   -1.12041081476436
C         -16.70054081325310   15.34581638202263   -0.21800732954703
C         -15.63974372272522   15.43821327824723    0.68250206000571
C         -15.35768358486136   16.36287354943440    1.69019469337416
C         -14.13707917529129   16.00200915725122    2.32207949928994
C         -13.65774815766153   14.84887041246255    1.70833308729402
C         -14.56111435689668   14.46248960570088    0.67971212525178
C         -14.54288725796362   13.41640013349382   -0.20848811479741
C         -15.60912740905721   13.32023510585604   -1.12371813407865
C         -15.86521086374829   12.40440986872368   -2.12860446144029
C         -13.48111338065890   16.68896217093139    3.40895718363901
C         -13.91863425114883   17.79907488684027    3.99729462552778
H          -4.71347538158500    2.08826864719793    6.84635585449711
H           0.16920828332405    0.96778140769826    6.80250929295375
H          -4.57180586081350    1.47214240431399    9.57709301446716
H          -1.43370874926372    1.83701007489183    1.52632815632155
H          -7.30975104091752    6.15420376067200    0.32022619542683
H         -12.05316330957507    7.16638856401372   -3.49175237139895
H         -12.30177702324989    4.67503364956981   -6.55075139778882
H         -14.41763613806149    5.32301362562709   -7.74008366818249
H         -16.33626547166447    7.04100548260102   -7.67373938594687
H         -17.85645534320114    8.84401141716489   -7.07484469594506
H         -18.96988578171008   10.91181233567325   -6.01812355017375
H         -18.65838033194215   12.59747347150643   -4.18459495566879
H         -18.48680787427102   14.43982262617423   -2.40198836763438
H         -17.50069947184197   16.07236654980451   -0.21225476071628
H         -15.96689669664272   17.21031449714283    1.94496308706030
H         -12.75215738715791   14.32932848917218    1.96330597995677
H         -13.74471762357807   12.68813785830363   -0.21728709424168
H         -15.24503168126330   11.56435610446030   -2.37731162214581
H         -12.55811895657222   16.23307153085144    3.74450249710857
H         -14.82956945971074   18.28857791379253    3.69803618818326
H         -13.37554123380709   18.25860247031645    4.80450672004742
