84
 SCF done       -159.444990227109          0.000837298641
C         -10.47152491998392    3.73000406939495    0.24248464124398
C          -9.12018338375211    3.91409192404650    0.03036388512446
C          -8.53862632384456    5.13897809258418   -0.35155789631289
N          -7.99344313610900    6.10388271709681   -0.65498542851398
C          -8.13292787672512    2.91980068155408    0.10326723378795
N          -7.27216031356615    2.15369833539513    0.11080864162290
C         -11.49015634872164    4.74698552797120    0.02424154725085
C         -12.76541743935043    4.15590599017795    0.19510528527534
C         -13.93587610469363    4.85221323665702    0.02710463743731
C         -13.84671142777500    6.20628307399947   -0.31594664517282
C         -12.56883143576833    6.79226511102285   -0.47525069031082
C         -11.38449602693232    6.08489096551867   -0.31325740515908
S         -12.68611559493757    8.47446421620145   -0.89774804714688
C         -14.42620502226217    8.36682013433461   -0.85724448356617
C         -14.89703540076021    7.13668984233271   -0.54244377905709
Br        -15.45679711007940    9.88837258615361   -1.23425101496823
C         -12.60383797330277    2.73031319469705    0.55301227065429
O         -13.49930529005262    1.92418911418451    0.67476742407140
C         -11.13936582203846    2.51393399749558    0.65761149409882
C         -10.48925940152493    1.37619426719411    1.06129762985789
C         -11.01775245694506    0.17129604936340    1.56283211669166
O         -12.32912539964298    0.06984533685388    1.92968801644381
C         -12.56700120589500   -1.12934923965378    2.39809537782571
C         -11.41898959638777   -1.89718090728772    2.36702798414204
N         -11.30052696670858   -3.22820416706318    2.78618757069949
O         -12.29144238447721   -3.78628946586828    3.20922703330516
O         -10.19175178530991   -3.75305562535175    2.70446588306434
C         -10.38107088067266   -1.06436630427411    1.81947627802548
N          -9.13067763984462   -1.52356569263579    1.63357508147857
C          -8.04072924640679   -0.94204124855443    1.03088545246587
C          -6.85699472672329   -1.56070070446821    0.92651315816535
C          -6.60298255766753   -2.93864657716002    1.46599446629353
C          -5.72497150712278   -0.87505777612433    0.21676589426198
N          -4.51068257707508   -0.95166856852509    0.99930667248185
C          -3.27805264343846   -0.73793633431857    0.51221834584382
C          -2.97783240549703   -0.38777843629544   -0.77316098156003
C          -1.66914331604356   -0.25163327982116   -1.24743663693570
C          -0.35358408480016   -0.48726972181909   -0.79270995674339
C           0.19882723106493    0.01979502274893   -2.07509140548569
C           1.14680760895372    0.34556997472276   -2.95959532618136
S           0.38277936792110    0.95239398348570   -4.43182172624599
C          -1.23773248394984    0.74207784676881   -3.78239075591604
C          -1.15349415609918    0.24628865153115   -2.54109841663541
C           0.24861051160798   -1.03597525861122    0.33973142964101
C           1.60150601756732   -1.15197514135307    0.46978642394398
C           2.28049592309064   -1.73225081053529    1.58170440203790
C           3.68293152548688   -1.82148877629282    1.57167117298014
O           4.27577767217387   -1.33330708794697    0.44739004021585
C           5.59674152308563   -0.83614066307907    0.45950913960710
C           4.40305146733310   -2.43750246586299    2.64211915654875
O           5.75470230510475   -2.54093330304249    2.47893654580191
C           6.51102236861019   -3.16932020834242    3.48482633312665
C           3.74985790943670   -2.91541121330490    3.75394312757929
C           2.35476227305212   -2.81572675491544    3.81317822413915
C           1.60572770550128   -2.24023564065405    2.72806643477616
N           0.29945434936715   -2.25155549581689    2.97431317568584
S           0.04377037595681   -2.92000686413607    4.42575200015677
N           1.57701446536166   -3.22802947539345    4.81150212192838
H         -14.89144606004800    4.36869667793932    0.15651668874144
H         -10.43699292961954    6.57847961652157   -0.44857507851062
H         -15.94167149611496    6.89377042210408   -0.47339565473045
H          -9.41268548463221    1.40386557785272    1.02904129967920
H         -13.55575960103144   -1.37254612912853    2.73597798298912
H          -9.01219355134071   -2.48886666403865    1.95068440079718
H          -8.17133279631253    0.03873760741683    0.60911621901081
H          -6.66704029484385   -2.95743665688552    2.55425711422310
H          -5.61482899142126   -3.28375477837568    1.17512014773305
H          -7.33592484211304   -3.64913771435769    1.08397362309892
H          -5.98966691075647    0.16807049787754    0.00734099004776
H          -5.53915537812500   -1.38140792377559   -0.73864062139762
H          -4.62564133418002   -1.03556558809137    1.99606342001620
H          -2.47802991363850   -0.87285389470673    1.22567195808748
H          -3.76849617381145   -0.17032823694137   -1.47631258564099
H           2.21657735942048    0.30074254670690   -2.92638863510284
H          -2.07314346365372    1.00949642396541   -4.39794620397985
H          -0.38426073310523   -1.40129590794351    1.13397268420892
H           2.23010763693196   -0.78908738983738   -0.32990705738155
H           5.79726741697276   -0.23992821506187    1.35194959068570
H           5.66796781591766   -0.19918186254126   -0.42325813625044
H           6.33305274533132   -1.63889947149923    0.38686999409224
H           6.44177382377947   -2.63193733846595    4.43555247645342
H           7.54056049967895   -3.14474612984583    3.13069477056425
H           6.20131979160250   -4.20872615475711    3.62935627686558
H           4.26605663723870   -3.38023004910618    4.57521118149470
