92
 SCF done       -196.035811708382          0.000903253198
C          -3.03057491333147   -1.20474788717933    0.18406199232443
C          -2.74805663729609   -2.00025321161082    1.26992493642241
C          -2.02667166694606   -3.20861368874429    1.19734214581273
N          -1.44898694184464   -4.20125104788255    1.20729685725892
C          -3.14107914320347   -1.74505350187372    2.59828908589377
N          -3.42714607379471   -1.60661052135126    3.70311274011078
C          -2.63101817074175   -1.49352820782039   -1.19198459660950
C          -3.15180935773862   -0.48148312210854   -2.03520903735151
C          -2.94060856441673   -0.46310215369070   -3.39139326684674
C          -2.17115104588792   -1.49298081180433   -3.94495913625677
C          -1.65342113080500   -2.49824054880769   -3.09600302897114
C          -1.87193880048935   -2.51796884565423   -1.72281970373493
S          -0.72492776185424   -3.66891286443009   -3.98289744432963
C          -1.04198034563049   -2.80378955893825   -5.46292109745537
C          -1.80239713210946   -1.69478604882799   -5.30329213027408
Br         -0.33452210206420   -3.44230579129608   -7.07889980573939
C          -3.89565160678127    0.49039673021122   -1.21207735811740
O          -4.49301387556172    1.47379846580059   -1.62221985529130
C          -3.77013158417169    0.03528032549145    0.16981250156966
C          -4.22907088702674    0.70468596602612    1.28873096861519
C          -4.89202706624997    1.91829915661044    1.41072268198063
S          -5.40020906568286    2.95669796386415    0.10650666875167
C          -5.99061067592891    4.17194997130470    1.19059174523844
C          -5.81111205459222    3.78882733489258    2.54539250007858
C          -5.21101472370927    2.50937964923808    2.66942857683580
C          -4.98945212406972    1.96510396050245    3.94233183700203
C          -5.36022914487942    2.69053267750621    5.04594355134539
F          -5.16106460764910    2.18539754875358    6.27001422356753
C          -5.95127208172587    3.96069195017585    4.92058442094767
F          -6.30085084083357    4.63462210004638    6.02662252336454
C          -6.17882161472259    4.51254613936168    3.68723851877903
C          -6.52242933378538    5.38294594875498    0.73501592946334
C          -6.85410663451597    5.62224093810680   -0.57676891019755
C          -7.28550045452361    6.83404834931348   -1.12269847210519
S          -8.16033529224590    6.80328900954396   -2.62937499911602
C          -8.38389329219604    8.52814961723566   -2.65817077728978
C          -7.75040885573350    9.12115523123952   -1.52945224330283
C          -7.13354875636041    8.16926872765724   -0.67365674229487
C          -6.39809360447839    8.62857734282356    0.42789158521185
C          -6.34921220014491    9.97127586630446    0.70253094376315
C          -5.57196974003102   10.48344013260362    1.88238985199185
F          -4.98977286726627    9.49204078267231    2.57801519289134
F          -4.58343108967084   11.31981674433044    1.52804028341467
F          -6.34175232066368   11.14753290359188    2.75885651459987
C          -7.01454614773067   10.92443753285851   -0.11424115550614
O          -6.89619258382676   12.20686744049888    0.27911930724471
C          -7.51035000569607   13.21865434229571   -0.48501369958649
C          -7.69530107996534   10.48725427453813   -1.23239354430372
C          -9.07665999243197    9.19226135630494   -3.65824608911760
C          -9.78455796399739    8.63994345521944   -4.71170775984607
C         -10.45367972134200    9.36940741536277   -5.71636560915663
C         -11.13029513691696    8.59518503466716   -6.61578635448587
C         -11.03590659508091    7.21516167857271   -6.35497493314455
S         -10.02782614903488    6.92603813882925   -4.95347781708105
C         -11.65336500231937    6.17689945845669   -7.03568277985705
C         -12.46541177530610    6.26167780369801   -8.18667337550118
C         -12.96413950920637    5.06255270965624   -8.59737567206905
C         -12.57929458139303    3.96517599053408   -7.78689832887644
S         -11.53036291543426    4.51873701427009   -6.49406412936702
C         -12.97800195791917    2.66496497029506   -7.95943909130763
C         -12.65394795152343    1.55677612029129   -7.16121604899585
S         -11.61874194008931    1.58530329095065   -5.74131627990197
C         -11.80037490226248   -0.09122760997206   -5.42152277489411
C         -12.62044824456613   -0.68096618071174   -6.35616754840328
C         -13.09169894819454    0.25142269050348   -7.32737254739139
O         -13.89367244563623   -0.35079534224484   -8.22674944544186
C         -13.94165712339054   -1.65600489022818   -7.84317318712936
N         -14.72935285158790   -2.54025386353097   -8.62189752572715
O         -14.75758058635739   -3.70000295252368   -8.25776384094624
O         -15.30883296625989   -2.08587016157275   -9.58336255541183
C         -13.19894971047024   -1.92689130953939   -6.72606440258756
H          -3.34975894306190    0.32287871962258   -4.00660501715813
H          -1.45197516941287   -3.30547035803751   -1.12010309186087
H          -2.09084497923655   -1.04411475929087   -6.10855149093847
H          -4.01084105538699    0.23317051084543    2.23610928213388
H          -4.54500491438683    0.99330334507738    4.08798830593169
H          -6.63667521876433    5.48556295486605    3.61987086106865
H          -6.71752046158398    6.14077572866182    1.47841196592866
H          -6.83025397786599    4.77875327260620   -1.25660417835112
H          -5.84372922351797    7.94054060962634    1.04309800111523
H          -7.28097311506565   14.14923073910289    0.03000024311477
H          -8.59524530206525   13.08307245618305   -0.52664600381959
H          -7.10216006972722   13.25428821990669   -1.49953937294540
H          -8.17884455177091   11.19237696141125   -1.88685807859009
H          -9.08271024745428   10.27291602901369   -3.61122878204593
H         -10.42166970515593   10.44422404740140   -5.74670531773035
H         -11.70094121936284    8.98547001074959   -7.43862463131268
H         -12.65942795134584    7.19711764875368   -8.67917961405485
H         -13.60370186981485    4.92786878398890   -9.45130460401859
H         -13.63105356165826    2.45078952607094   -8.79563138741656
H         -11.30356223090213   -0.53260115072610   -4.58284158715120
H         -13.09569126152910   -2.88165542505706   -6.25388848460107
