97
 SCF done       -184.133614011916          0.000979339034
C          -7.20992166401260   -1.16190773916365   -1.08463389680361
C          -5.87821388162322   -1.47990657001375   -1.01972659683019
C          -5.25509681504856   -2.44695376813549   -1.83648849798443
N          -4.69141443010341   -3.21997575962754   -2.47086082832308
C          -4.93553482448421   -0.90322959344356   -0.14242467751555
N          -4.10160825543815   -0.49030774609212    0.53150147515709
C          -8.17730233937931   -1.75688766618770   -1.99916548776074
C          -9.44310412068846   -1.16530163694284   -1.77029416006152
C         -10.56831035752356   -1.52770035289790   -2.46920190715951
C         -10.43805738089164   -2.51717320579685   -3.44918235925344
C          -9.16864052529539   -3.10048258233119   -3.67440741903633
C          -8.03197331543832   -2.73826094833217   -2.96301514081492
S          -9.23166102997530   -4.30340294237717   -4.92781199749468
C         -10.93855621335701   -4.00920820806669   -5.12882304058049
C         -11.43774929829296   -3.06020679808610   -4.30166813527947
Br        -11.90103110213842   -4.98291911674400   -6.41104094293021
C          -9.33009945910407   -0.15828758883010   -0.69507645081838
O         -10.24491918587549    0.48154343754287   -0.21681590903144
C          -7.91012442214313   -0.16959283593989   -0.28540225993567
C          -7.39559160050971    0.49986515598444    0.78526301832475
C          -8.00021807002140    1.54981932670480    1.52660245277894
C          -8.71143300958066    2.64661939972092    1.05085679671319
C          -9.07999411468268    3.04501187084990   -0.32547431385122
N          -8.94376948788181    3.46901944155643    2.10418309034276
C          -8.42415505281871    2.96068773322563    3.25653149070165
C          -8.59051737831247    3.64808921882911    4.56136248700429
C          -7.81208318513479    1.75898269155412    2.94500357889100
C          -7.19071380090038    0.88377926329724    3.88412660837623
C          -6.93619134145902   -0.43158242848565    3.69215440916477
C          -6.27875466055459   -1.25815064188754    4.63472245434633
S          -5.97002593227221   -2.93954770631082    4.26469005680906
C          -5.19337294209842   -3.26226348978819    5.79942054068671
C          -5.18483244006656   -2.08639451396431    6.55799679935872
C          -5.78322704573863   -0.98176730598895    5.89680926275276
S          -5.71303408070625    0.41218355341962    6.92522477761344
C          -4.90524258269176   -0.59626799312010    8.11818433239410
N          -4.70880174143113   -1.81542404931489    7.80001204140547
C          -4.69183116950763   -4.52610872820271    6.12469423076570
C          -4.12231854001479   -4.80439878891283    7.34436870887776
C          -3.60327272523041   -6.04477007724011    7.70294330260659
C          -3.06862498861058   -6.31221494501718    8.94875744155098
C          -2.50483594451966   -7.52132065922816    9.40415963218290
C          -2.06582566572269   -7.48107165069048   10.69826079641784
C          -2.27093589215282   -6.23670327728830   11.32604650958082
S          -3.02359540446685   -5.11293411273471   10.22794748990523
C          -1.96202391055171   -5.87407530963295   12.63189332420463
C          -1.33354789392462   -6.64508383939880   13.62528553553442
C          -1.18507600159575   -5.98929012560796   14.81691837217015
C          -1.69236039256370   -4.67484301183850   14.81641166420643
S          -2.36426661341194   -4.28974799940422   13.25266226596050
C          -1.70426395251010   -3.79174122448144   15.88498080542812
C          -2.21877934153523   -2.50756384550568   15.80778448389467
C          -2.32428600403223   -1.56260849815625   16.81200251872799
C          -2.20667349679465   -1.65797870695436   18.23761997382518
C          -2.42068024608934   -2.77028596014591   19.02308996754351
C          -2.30210965526028   -2.77660400386600   20.42505305850794
N          -2.19827116194069   -2.84476841136663   21.56773002272995
C          -2.89584218378646   -4.00650692542700   18.54669272207870
N          -3.33034056817445   -5.02464616434526   18.23809619846699
C          -2.03010113383235   -0.29879868861668   18.75449307353210
C          -2.23217127262566    0.61683152534425   17.69255982346164
C          -2.47958000543559   -0.14144429197728   16.44588746917376
O          -2.72244066812806    0.31151814046489   15.34579976101119
C          -2.17092367584057    1.97639890222482   17.86755968035970
C          -1.88404275473104    2.45754375033528   19.15067795902807
C          -1.67072576656546    1.53563713377573   20.20001721379495
C          -1.74235717464978    0.15766124203374   20.02487587508679
S          -1.31882339410591    2.34303670261408   21.69897778835425
C          -1.46476129741355    3.88805763473423   20.90401170979451
C          -1.76041913351052    3.80626484177611   19.58590658547545
Br         -1.21127902575020    5.46444158315083   21.89032827784551
H         -11.52011911463063   -1.06203862487090   -2.26672722204649
H          -7.08947920076629   -3.21721474289409   -3.16857877258926
H         -12.46835683910435   -2.75565993752870   -4.29101415109793
H          -6.41526352257455    0.20980845215078    1.14308682882416
H         -10.06264602009518    2.64038704556738   -0.57666326373786
H          -8.36771332625130    2.64033241668188   -1.04127867470987
H          -9.10896232503589    4.12914267813071   -0.41846382006965
H          -9.44424310114881    4.34202268946192    2.03993852619530
H          -8.78580715282551    4.70803801938079    4.41192114101342
H          -7.69346320541329    3.53856519969885    5.16644200017846
H          -9.42431225023048    3.22137586045636    5.12050481482816
H          -6.93097354151257    1.32876568370739    4.83588855246277
H          -7.25914885259091   -0.92538051458666    2.78748831438435
H          -4.60778687758579   -0.17248011106222    9.05683641253586
H          -4.77158988865254   -5.30114522361143    5.37414340916600
H          -4.07743340106277   -4.00633546932565    8.07378975113198
H          -3.61280060254936   -6.85057144496594    6.98007749301882
H          -2.43747838858936   -8.38619139739318    8.76780260341076
H          -1.61179868192884   -8.31085687757967   11.20902692984003
H          -1.00441716416803   -7.65275307545334   13.44595634914729
H          -0.73686868660647   -6.41674854001402   15.69583010680550
H          -1.26385249460071   -4.14676849975045   16.80486498041119
H          -2.50556325530102   -2.14694115834347   14.82370420100167
H          -2.33766836007108    2.65058638023106   17.04208496025656
H          -1.56925457537299   -0.50468050448099   20.85662097621120
H          -1.88592502877390    4.65937158148840   18.94431166007093
