79
 SCF done       -158.891323447530          0.000923987013
C          -9.03755232020296   -0.63113197823587   -1.32451959680249
C          -9.75783223173594   -1.00114791677233   -0.21401934672953
C         -11.09557905798236   -1.44510919356618   -0.25288078407364
N         -12.18469467770004   -1.80748789185303   -0.21289656254746
C          -9.29599148350907   -0.98598156374474    1.11745987637320
N          -9.00900041446462   -0.99613261946144    2.23121055202165
C          -9.54671674287030   -0.63014718741230   -2.69321746834833
C          -8.53863250969750   -0.12617358010329   -3.55109151877646
C          -8.70865133030835   -0.00549106401413   -4.90783170647731
C          -9.93592664744400   -0.40481452194690   -5.44855284893291
C         -10.93794107402041   -0.90683975777418   -4.58546733405453
C         -10.76507218226261   -1.02664378361561   -3.21159364761746
S         -12.37399327798834   -1.34542756754388   -5.46073545744624
C         -11.61795606088016   -0.85548844782944   -6.95341834857621
C         -10.35601637823215   -0.38671535618037   -6.80667873612455
Br        -12.56557614151729   -1.00957353112777   -8.56480933573682
C          -7.34564368416686    0.21042349770531   -2.74987399469415
O          -6.30764943734619    0.68579714379682   -3.17338457566237
C          -7.67230372193205   -0.15007651913965   -1.36721582003837
C          -6.82790640800882   -0.09803082830803   -0.28388426513464
C          -5.50590829374007    0.33708530475157   -0.16156800887242
S          -4.52537789587033    0.97927792680070   -1.45442118309469
C          -3.19856974388381    1.12581266274042   -0.39166242873066
C          -3.43300472084612    0.69566121912436    0.88562057920080
C          -2.40203881541680    0.78806774834475    1.96215103169062
C          -4.76693580824089    0.24196847224809    1.04487564159882
C          -5.35081728657168   -0.23095284603991    2.26434486212810
C          -4.71124066964893   -0.90540705889418    3.25086613600096
C          -5.38195013390020   -1.36154204530389    4.41270200993124
C          -4.78558409735732   -2.14767656122143    5.34756106781959
C          -5.41699369116820   -2.64186602640139    6.50836116991114
S          -4.56548113151489   -3.73593604414684    7.58041363237533
C          -5.90381383858535   -3.88992483584729    8.68757054175272
C          -6.96639929011554   -3.10663337940486    8.23172614725996
C          -6.68718012455376   -2.42363064929804    7.01691168261570
S          -8.06910124044266   -1.49528026003467    6.54230501850456
C          -8.87468638335004   -2.09502471058658    7.98374591412415
N          -8.21076231866859   -2.88718436794465    8.73273020886515
C          -5.80968468090844   -4.71442137414299    9.82116823657408
C          -6.80855890181319   -4.82878426045744   10.74514967405044
C          -6.72884518206495   -5.66364661090571   11.87246070177966
S          -8.00951685448859   -5.68256927153207   13.04696891862667
C          -7.23647640065958   -6.86186034385611   14.05217257599367
C          -6.01125964320453   -7.24436397294712   13.48887615504700
C          -5.72199234862508   -6.56684010746081   12.25926548985411
N          -4.58605466045698   -6.82059014726589   11.58518439227264
C          -3.78164246333714   -7.70549252999241   12.11571067935149
C          -4.06779413204377   -8.36696512352210   13.33250864745986
N          -5.16006493196158   -8.14304173471417   14.01088471862858
C          -7.81310885368492   -7.31685170781183   15.25952647688304
S          -9.31826709144912   -6.65651522370623   15.86938945580508
C          -9.33004588368927   -7.64245055336663   17.27338515206084
C          -8.22699979246056   -8.46007356131759   17.29370861871588
C          -7.37510013440856   -8.27329958993562   16.15624851975823
O          -6.31523256238922   -9.09979748843363   16.21817152383327
C          -6.47091170070110   -9.80370420662505   17.36741109821667
N          -5.48187991163376  -10.76630031519049   17.69354562819578
O          -5.64872878279791  -11.37778925553492   18.73259358463417
O          -4.55359661035360  -10.91420101562616   16.93129186118754
C          -7.59863133938627   -9.47341878705681   18.06894980178398
H          -7.91992268860376    0.38220622940343   -5.53329118947216
H         -11.55971504808135   -1.41810179008867   -2.59891061113462
H          -9.74480745426697   -0.04294307643152   -7.62108338003897
H          -7.24405674324299   -0.47728743963668    0.63894969040644
H          -2.27552510918833    1.53436690985794   -0.75784933708476
H          -1.66138857911005    1.54018215354126    1.70064105698552
H          -1.88348236562195   -0.16266093685466    2.08397636223135
H          -2.86131634863700    1.05561724398465    2.91123035303549
H          -6.41334744836121   -0.06864978275031    2.39444292793898
H          -3.67055854487435   -1.17446252195592    3.14955149190912
H          -6.41989072755843   -1.08113105954595    4.52910089452458
H          -3.75430519734164   -2.44625523630503    5.21125138684384
H          -9.88047584998255   -1.78811534729932    8.19379980231620
H          -4.89877655803194   -5.27904418919088    9.95672606611298
H          -7.71204389030664   -4.24805152726293   10.61846374159442
H          -2.87043602203083   -7.91070369712307   11.57082679845907
H          -3.38604804692745   -9.09297383570170   13.75191149520891
H         -10.12905844923258   -7.56239791766314   17.98038586550863
H          -7.91564079996365   -9.90105887941777   18.99727157019468
