102
 SCF done       -185.187896335219          0.000845434640
C          -5.62508694058040   -2.18521057707001   -6.09806084391403
C          -6.36880300264591   -3.23525900071657   -5.62045443519464
C          -6.77222366476764   -4.33227312295463   -6.40832973729034
N          -7.12258640199745   -5.25261595614262   -6.99884243426678
C          -6.90227744522131   -3.34062515055975   -4.31825613368716
N          -7.41617303598734   -3.48847795344053   -3.30234417393292
C          -5.23183290745907   -2.00036566028446   -7.48931887384256
C          -4.67667675643103   -0.70661465380289   -7.63021475993026
C          -4.23445154241629   -0.21405772709753   -8.83354236495324
C          -4.33610046847340   -1.04431392826223   -9.95478154129717
C          -4.88135014725890   -2.34112277479882   -9.80317247059449
C          -5.33497844624334   -2.83598733063804   -8.58638320228472
S          -4.90901043478332   -3.20268365584130  -11.31223685360571
C          -4.20123365386981   -1.82588293077216  -12.11497149564568
C          -3.95370247988592   -0.77526274621261  -11.29752625462196
Br         -3.85343953974274   -1.90505420034038  -13.95683367250405
C          -4.66229343732656   -0.02606663340325   -6.31930570534340
O          -4.28194028268330    1.10975099318986   -6.12952778109357
C          -5.18287959805843   -1.02209277313208   -5.34843065838275
C          -5.15517352746522   -0.95329484019299   -3.98080003842925
C          -4.77244456787805    0.12623111390264   -3.15865024526618
O          -4.48961602031742    1.36356993449893   -3.63911578866516
C          -4.64240948097245    0.17182439997536   -1.77574878021118
C          -4.71760487482631   -0.62757382240190   -0.54600191565414
O          -4.96177021091669   -1.79095093911707   -0.36932932586036
N          -4.40610467646707    0.29081310672268    0.45595229145344
C          -4.12002649589141    1.58333451913123    0.01700563938435
O          -3.82586714541499    2.50754186778438    0.72935400051971
C          -4.26989842727704    1.49121520054036   -1.43747063180159
C          -4.18105158991522    2.20036390603053   -2.62611198080952
C          -3.83173251722871    3.54812886327268   -2.91593790044743
C          -3.70770446502159    3.95511369857138   -4.19906161130769
C          -3.43419382146691    5.29549977464320   -4.63781555746388
C          -3.83604231066164    6.36716364149214   -3.88589446742679
S          -3.65243786005224    7.88594208280889   -4.64947143878415
C          -2.97295202895891    7.10134618269879   -6.04551730024250
C          -2.87485924472429    5.70819346879901   -5.91054893922957
C          -2.26090903832583    4.96096066444081   -6.94988359064621
C          -1.95888947617848    3.49928728560950   -6.73980788864081
C          -0.94646428251623    3.29938496204426   -5.60935561704341
C          -1.87662984263706    5.59914128956642   -8.12424748417125
C          -1.31018770662723    4.83566320344906   -9.29352032667432
C           0.20642590830634    4.66461270044124   -9.18408380858497
C          -2.02222939646902    6.99956939843677   -8.26516690733083
C          -1.74305319753009    7.86240545128219   -9.38904658675323
C          -2.10958381758341    9.15054662974020   -9.14128147767328
S          -2.74281650345998    9.42803450545867   -7.56552070530637
C          -2.57148475278570    7.73826081799632   -7.20699025067726
C          -1.13615022741697    7.52018981112789  -10.66453801538058
C          -1.68773217490107    7.86733623651899  -11.84797178618032
C          -1.09958138219712    7.60363230936568  -13.10697309920253
C          -1.73500152988839    7.79456130996326  -14.30230169296181
C          -1.21489557893875    7.57155903427271  -15.60328129242856
C          -2.09751069136826    7.80996434700698  -16.61115189402945
C          -3.37447524723698    8.22464248049208  -16.17171635100447
S          -3.40588933236022    8.33641095656939  -14.42239025934152
C          -4.49351684754170    8.48399139225610  -16.93613935029387
C          -4.63178979744541    8.43768604957535  -18.33983205450892
C          -5.89016584109359    8.71061893728528  -18.78523401889160
C          -6.83403444351188    8.98535713013225  -17.76686156735203
S          -6.02664779453088    8.90287861662812  -16.20119007274373
C          -8.16705591974960    9.25168183424706  -17.96358622609513
C          -9.17006382833561    9.49934524449810  -17.01683727022598
N          -9.00922554112396    9.54523229515509  -15.64400960639936
C         -10.17325249353899    9.79191184897583  -15.00006096922990
C         -11.16757613351628    9.92011163393540  -15.95830367181155
C         -10.53885828567494    9.73780115483390  -17.21968310977865
N         -11.48259264232596    9.85348711691916  -18.18652106163294
C         -12.68952298937540   10.10157788451440  -17.57374607610744
C         -12.54681618247032   10.15120101233212  -16.21968289512825
H          -3.82425414749109    0.78098378431242   -8.90893756800338
H          -5.74158964618929   -3.83126174349387   -8.52383353116789
H          -3.52116579827370    0.15198501382710  -11.62650802895782
H          -5.44069829547560   -1.82933947361909   -3.41280866829561
H          -4.38099999881964    0.03388004269918    1.43243534163956
H          -3.64423575239660    4.18645546182854   -2.06655792713842
H          -3.88092800279974    3.21141553051882   -4.96157281533243
H          -4.30552382101994    6.32814806037509   -2.92245102657977
H          -1.53011900739195    3.06694794210788   -7.63983433841336
H          -2.86719591553537    2.93788612733324   -6.52888814013942
H          -0.02029943208390    3.82536267016043   -5.83464666225690
H          -0.72528440337225    2.24047982727680   -5.49603187985249
H          -1.32514990473580    3.67093688173300   -4.66145008920257
H          -1.54898093316228    5.38103289883001  -10.20789158423690
H          -1.78531792464651    3.85770503493565   -9.38010144361539
H           0.69028866967262    5.62887055275000   -9.04398030095753
H           0.60181373891440    4.20286902415579  -10.08679113363920
H           0.46598759870972    4.03738318035388   -8.33511368235920
H          -1.99490102556445    9.98356932955137   -9.80743472102893
H          -0.17979910004545    7.01620576024200  -10.64917697647376
H          -2.66303372932273    8.33867683111701  -11.85585886828972
H          -0.09042417109056    7.21376926409637  -13.13053282751593
H          -0.20168037932920    7.23951361779891  -15.74705793225876
H          -1.87085307221254    7.68846249633705  -17.65546651134558
H          -3.80127955809207    8.20310606528988  -18.98093842131482
H          -6.17563047914922    8.71600679313938  -19.82274020279560
H          -8.49678564089263    9.26041794459548  -18.99459411514843
H          -8.12260771419500    9.40714955942136  -15.18669654844355
H         -10.21701062702969    9.85812991120959  -13.93150472859648
H         -11.34390723528887    9.76915561391141  -19.17862191180646
H         -13.57658754750690   10.22672552852802  -18.16429259298783
H         -13.32186028362881   10.32837854719312  -15.50227579630360
