109
 SCF done       -235.786888379303          0.000809660947
C          -4.74028643044283    3.84799329312361    6.45975290057195
C          -4.52412833891957    2.49666180478928    6.55735010587295
C          -3.83947868968702    1.72794253353259    5.59771176671688
N          -3.34807851758281    1.01653187200460    4.84048034500022
C          -4.96185891032608    1.66481879401286    7.60808514523068
N          -5.23773136065503    0.91431067612801    8.43470112844814
C          -4.17447114142279    4.73654499254054    5.45508417854812
C          -4.51293318553977    6.07434887365655    5.78484678788705
C          -4.11327234629938    7.14404791313677    5.02225430534958
C          -3.35036437530525    6.88188954537568    3.87838316762039
C          -3.02343328174209    5.54304842675979    3.55553549230556
C          -3.42108211893740    4.46092207443112    4.33052510939570
S          -2.08253906639038    5.44759554982949    2.09866852071975
C          -2.13622512579528    7.18335271041641    1.94616759727148
C          -2.82455018124968    7.80462032259252    2.93354257293298
Br         -1.27808072871520    8.01220643861831    0.50025958417257
C          -5.33753130564394    6.07963359330914    7.01083922023316
O          -5.78145865062980    7.04910473352749    7.59508792996488
C          -5.52990067119390    4.66438211398940    7.35787801238372
C          -6.44024379154841    4.16083581553485    8.24344644115810
C          -7.30204366316316    4.79812121576052    9.15023239649210
S          -7.23844206391841    6.46529824536531    9.63215481048329
C          -8.40047204232570    6.16881383105462   10.85188682356416
C          -8.84667135389698    4.87422343955564   10.91556006759515
C          -9.87176577758328    4.38595378113954   11.88377704126519
C          -8.23864492724651    4.07668111227668    9.92343525655613
C          -8.47300315097506    2.69791415120614    9.59185487843403
C          -8.58273315145436    1.62410220776871   10.40466844904747
C          -8.42243914592450    0.28665904923121    9.91917049298035
C          -8.11251860308555   -0.00433060675356    8.63005716996002
C          -7.62547297987473   -1.22719596870850    8.12414027070063
C          -7.01272368611994   -1.39310883947535    6.87814870434554
C          -6.88774681968981   -0.33367651569251    5.88472460011170
O          -7.33552985680398    0.79841628691610    5.99560754770538
C          -6.12639019082449   -0.73349423198073    4.68627327387515
C          -5.44171622832869   -1.97266056158054    4.59263647062721
C          -4.73212589951247   -2.07777267354935    3.41886434670229
S          -4.90118407758304   -0.69816476092962    2.41207010266292
C          -5.92559268179672    0.04596346155064    3.56897239022824
C          -6.53238019110182    1.37407606720848    3.25225057893864
F          -6.15131379698065    2.36379838553177    4.07141901868896
F          -6.18565323299516    1.77775524631069    2.01642217788615
F          -7.86973925678402    1.34455796307593    3.27442715993422
C          -3.88916118684033   -3.22352271428005    2.95836814221040
F          -4.58523381731713   -4.36416395560428    2.83862017091496
F          -3.37005771057027   -2.97913282088734    1.74214462390420
F          -2.85351179857121   -3.47517517581913    3.76172691437538
C          -5.53742877040041   -3.00648918390983    5.63332456520186
O          -4.86954513291812   -4.03501057913412    5.59408475276375
C          -6.47436311837277   -2.69803644796400    6.69225306396327
C          -6.76747847165447   -3.56701858040038    7.75360314882344
S          -7.57605007425353   -2.69491007534062    9.04379390811170
C          -6.58489349099531   -4.94413961660105    7.95179252244558
C          -6.43161705586379   -5.95598620130275    7.03120943982748
C          -6.27972834591040   -7.33327299450190    7.36602791943129
C          -6.23788650696877   -8.16824195969520    6.29490219710044
C          -6.38098721673953   -7.49289649895825    5.05759725800889
S          -6.51674963677509   -5.77386377602817    5.30623159022680
C          -6.39507074952478   -8.01164077681830    3.77519247572793
C          -6.26438216701138   -9.35708769704188    3.36012894562348
C          -6.31988597866987   -9.51762777101801    2.00815847522562
C          -6.49967046047718   -8.30835582252246    1.29226020942332
S          -6.60316317128979   -6.96085187721823    2.39798787432180
C          -6.60858198165382   -8.16308493416091   -0.07615005907805
C          -6.76688160989124   -6.92067883092461   -0.68689839393955
C          -6.95845272477801   -6.62695110679908   -2.01696278536720
C          -6.69019305175810   -5.24489034046216   -2.48532932943798
O          -6.52230920974277   -4.26424514627250   -1.79493026134703
C          -6.63733867272889   -5.33508728174558   -3.95933151730232
C          -6.31929787171371   -4.36829140826237   -4.86764585543887
C          -6.30680650474727   -4.69539426805125   -6.24264807489744
C          -6.62231355051673   -6.02470240671681   -6.64633051646938
C          -6.60535896861002   -6.34596690364700   -8.01809810331376
C          -6.29170587037775   -5.39204064873567   -8.94532850664114
C          -5.97911099983990   -4.07816779077493   -8.54488445370464
C          -5.98614878146766   -3.73544954310443   -7.22175594748766
F          -5.67310281518732   -3.16323496647136   -9.47607563509296
F          -6.27825196524882   -5.69988335779561  -10.24997409570975
C          -6.95242790987597   -7.00433715945868   -5.68053265605552
C          -6.96555994259076   -6.66285227100735   -4.35546067779758
C          -7.29178482254268   -7.43822638600593   -3.15627048279724
C          -7.98054671154338   -8.62839419359192   -3.15704265787345
C          -8.54220158557463   -9.22893564954512   -2.01309534850473
N          -9.06200615299188   -9.74833406892278   -1.13028508751741
C          -8.31170698451177   -9.34199440297449   -4.32586085190324
N          -8.58711730305822   -9.97808665745062   -5.24158745538776
H          -4.38194667400058    8.15253265098086    5.29513311714772
H          -3.15313505184856    3.45719257438061    4.04577344259726
H          -2.95749828863100    8.86935416234761    2.99367026489010
H          -6.52705052653484    3.08221738113133    8.24328415836563
H          -8.72627288198254    6.97965650575634   11.47538497582477
H         -10.48140953531588    5.21177010455957   12.24118693975771
H          -9.38749961338863    3.92464805774176   12.74440247562937
H         -10.51277433409401    3.64290360871323   11.41458102102628
H          -8.43346209286927    2.50907684302831    8.52849448983844
H          -8.64969999781299    1.75018497336595   11.47573637169537
H          -8.42012768967903   -0.50781984018811   10.65502185027996
H          -8.12317275443970    0.77355913693615    7.88282413472614
H          -6.65970602249040   -5.26708978282810    8.98419943661409
H          -6.19629046015573   -7.65119149718709    8.39030261775022
H          -6.10853851108544   -9.23354321494288    6.35617094119118
H          -6.12697990295557  -10.15926549301491    4.06259668809692
H          -6.24276393313622  -10.46242757043940    1.50041799321360
H          -6.54098931632614   -9.06002366405344   -0.67361868836210
H          -6.64814232390458   -6.04659513442205   -0.05175626568602
H          -6.07927749698656   -3.36750437671609   -4.54247252474993
H          -6.84486164793773   -7.34666883361073   -8.34227899773540
H          -5.74451938606733   -2.72519757506001   -6.93073995165675
H          -7.17922970460832   -8.00338712970387   -6.01651827284051
