105
 SCF done       -202.178186671832          0.000767235378
C         -13.50133366433126  -13.63610382422063   -8.32726952123319
C         -12.53095650994188  -13.72371364878758   -7.35061533261101
C         -11.72076256259060  -14.85313719911096   -7.14159163517003
N         -11.03480574017012  -15.74224254138351   -6.88873048663125
C         -12.23108794683520  -12.73520053786092   -6.39419726697059
N         -11.89939154149984  -11.99124028757225   -5.58277167169512
C         -13.73641836385332  -14.65036920150211   -9.35385560197454
C         -14.87777815205356  -14.27919571938929  -10.10112377853316
C         -15.32802429744463  -15.00269448893033  -11.17733771727190
C         -14.57723289019653  -16.11503037357513  -11.57485292924272
C         -13.43005256304765  -16.46970018796422  -10.82896907900439
C         -13.01094291027412  -15.77167387846260   -9.70210066412039
S         -12.61750149060686  -17.83993195529109  -11.52440393997495
C         -13.81976516394077  -17.92270528076803  -12.78716795058629
C         -14.78057228016003  -16.97356374208285  -12.69075381664967
Br        -13.69216088070487  -19.25486134489918  -14.09610980624652
C         -15.41182927233523  -13.00730484475203   -9.56551026257614
O         -16.42661756489823  -12.45148885845501   -9.94082468209880
C         -14.46387389550834  -12.59041848411385   -8.51632712171778
C         -14.49880594358931  -11.36255854289920   -7.87493745742809
C         -15.44937717045255  -10.38681039898066   -8.12351422649391
C         -15.46464162132276   -9.14269659854211   -7.51178472611510
C         -16.39905765735015   -8.11479664886589   -7.74011885051047
C         -16.18304869768523   -6.98729712004675   -6.99396132407533
C         -15.06844256600411   -7.08302914334581   -6.14454271875459
S         -14.29368749865499   -8.63823079770058   -6.31771954721869
C         -14.59398619622515   -6.12316303420373   -5.25266261394561
C         -15.12140687675880   -4.84547740383068   -5.00031291668230
C         -14.43536222773570   -4.14725581173248   -4.04179964213285
C         -13.33987339516720   -4.84229779916917   -3.49992185189864
S         -13.19794394227062   -6.41740252059016   -4.25389642396296
C         -12.48076365282496   -4.40987983230834   -2.50127221262790
C         -11.42550690432105   -5.16202172491550   -2.00931499074819
C         -10.60769691969683   -4.76325509657128   -0.97301619268526
C          -9.56773374741370   -5.54567041284521   -0.47567647500877
O          -9.24871130209098   -6.75016968263827   -1.02141885001723
C          -8.22460021072995   -7.29050874330365   -0.30994230626414
C          -7.87442322678278   -6.40374200941099    0.72572313223298
C          -8.71492755807447   -5.29838796993462    0.61848135866320
O          -8.74224416296066   -4.19719588771328    1.39352188409292
O          -6.90957157842954   -6.53797336735252    1.67371852648209
C          -7.67481441651934   -8.53121081844324   -0.64257139171252
C          -8.04939018479708   -9.28574928895616   -1.73319161105631
C          -7.47961682735229  -10.51994937776737   -2.02863487835483
C          -7.77454286873115  -11.27416399978005   -3.14942057317611
C          -7.18348607316825  -12.50429848790960   -3.39013299500273
C          -7.37297789043039  -13.29682348245326   -4.51195917929254
C          -6.80051598344127  -14.56401186329310   -4.72830546826140
C          -7.13675920739686  -15.13010178646823   -5.92708333946752
C          -7.98125749991088  -14.32437698286829   -6.71098661006555
S          -8.35642002770718  -12.83871944266649   -5.88565778860750
C          -8.49228409166464  -14.63645789256675   -7.96844615203528
C          -8.33794757020181  -15.84626896599427   -8.66582160457756
C          -9.01991198412349  -15.88819643369555   -9.85123671867749
C          -9.74368574905553  -14.71585328116748  -10.13297451680657
S          -9.48447893491284  -13.52672658767789   -8.87878567832403
C         -10.62119076758147  -14.53767914778134  -11.19359472701626
C         -11.43006472519164  -13.42582413134840  -11.32437457430171
C         -12.49060177265241  -13.19062592995112  -12.18421347700342
C         -13.01258559962970  -13.87721908304611  -13.32862900736895
C         -12.38402233258941  -14.79139608838391  -14.14731159688354
C         -13.02649115928279  -15.48262343021152  -15.19184074376455
N         -13.50264285247037  -16.11855586233097  -16.02253815651532
C         -11.01826882291098  -15.12647768257023  -14.12593880970093
N          -9.91198799944320  -15.42447158047614  -14.21974789693677
C         -14.35717624875169  -13.34790938622345  -13.58023202021476
C         -14.59600174825795  -12.26776969206431  -12.69612786436018
C         -13.43757744316866  -12.12965603030999  -11.79571731227841
O         -13.31990971369646  -11.35786386216787  -10.86110592806552
C         -15.76768940505422  -11.55473982571223  -12.68833287447388
C         -16.76581486510083  -11.93526201034929  -13.59204104767875
C         -16.52302280889789  -13.01593288371112  -14.46890803829803
C         -15.32835879986609  -13.72848869923721  -14.48472979217763
S         -17.89388297791282  -13.32993216758910  -15.49167840566313
C         -18.76173150721570  -12.02069922999327  -14.73402867780306
C         -18.06314082818775  -11.38016548708126  -13.76825489394235
Br        -20.50734449299640  -11.62209685042361  -15.29536402500694
H         -16.21607592965649  -14.70694399896912  -11.71400610973000
H         -12.14017437504167  -16.09616287777528   -9.15737660793445
H         -15.59519553140332  -16.87685767891187  -13.38507427915378
H         -13.71882570823023  -11.13244430918452   -7.15925400520886
H         -16.22812206002649  -10.59343979479421   -8.84320053179783
H         -17.20322337221421   -8.23313836863748   -8.44418914939329
H         -16.79747105009634   -6.10627274254090   -7.03940415632841
H         -15.98511584066601   -4.46908879767425   -5.51767060074503
H         -14.69384198619389   -3.15598729128082   -3.71356259980112
H         -12.66571896655214   -3.42992078502390   -2.08097074582855
H         -11.24106533247863   -6.13132522613106   -2.45362175797295
H         -10.76222502041541   -3.81427112147229   -0.48171195811884
H          -8.06024746652107   -4.28447585459038    2.07266087025781
H          -6.45293694058717   -7.37827319052810    1.55956013654499
H          -6.89213238320503   -8.90577654786340    0.00550540550331
H          -8.81253191235884   -8.89262005268373   -2.38931211487604
H          -6.74265206884915  -10.91146400276486   -1.33681054026161
H          -8.48725883450281  -10.89431135667639   -3.86938189034195
H          -6.50643816352773  -12.89886494383284   -2.64158472978800
H          -6.16263489583384  -15.02798771036323   -3.99677318704470
H          -6.79501386748497  -16.09383766138631   -6.25647823169881
H          -7.75880086012040  -16.66314112968908   -8.27670371590381
H          -9.04163554460490  -16.73369352380688  -10.51534227583441
H         -10.70285242326236  -15.36646337493756  -11.87830744219262
H         -11.31755091101790  -12.65302238037200  -10.56687047311339
H         -15.91793357450670  -10.74172945773071  -11.99682980527357
H         -15.19855870271202  -14.54487647072335  -15.17493607394619
H         -18.44529935046104  -10.55505465155232  -13.19585336561100
