86
 SCF done       -167.322270784150          0.000366139805
C          -1.14765948838001   -1.26120785401466   -1.35210012299999
C          -1.58349855713361   -2.56571138803040   -1.24217083484595
C          -0.74235726762916   -3.68971533751892   -1.33488584290773
N          -0.11393675965260   -4.65029491533251   -1.39952956405744
C          -2.91164708606523   -2.97642324804638   -1.02276316781216
N          -3.96363603562376   -3.40731880674476   -0.84796670853448
C           0.24263262953768   -0.86317010729685   -1.57887032344939
C           0.30335291942827    0.54978054784205   -1.63170818249915
C           1.47400395234971    1.23484582165145   -1.83761136595525
C           2.64730841937629    0.48841312846338   -2.00050049626296
C           2.57730897185373   -0.92125234820620   -1.94517713673430
C           1.39004550912674   -1.61489059801668   -1.73591089903103
S           4.14062405920551   -1.64836190420424   -2.17155126118275
C           4.85512702077403   -0.06646284932293   -2.33628713521998
C           3.97251643625892    0.95348941177402   -2.22697904699629
Br          6.70133415691610    0.08879391058034   -2.63733211028735
C          -1.05727872361394    1.10007760648340   -1.43758590340085
O          -1.35469777425347    2.28076672334515   -1.42638471339880
C          -1.93759447727426   -0.06678972904109   -1.27063413979928
C          -3.31142374915095    0.00524073625887   -1.07986551232178
C          -4.04417379837813    1.17569541974467   -1.01273767672427
C          -5.42558359887684    1.19793555147828   -0.84783047801131
C          -6.25111964105344    2.33125076850676   -0.79065064349955
C          -7.58715584914587    2.04286680471036   -0.64844004090681
C          -7.85848888337090    0.67128751578694   -0.58494500691472
S          -6.38632472296880   -0.25540846230964   -0.70211640249647
C          -9.10395792839479    0.04140132318093   -0.46977880966542
C         -10.37151568964376    0.62901142913766   -0.42999216171684
C         -11.39898948087953   -0.28575440535337   -0.35453049002457
C         -10.97365384682936   -1.61577670520164   -0.32412477694218
S          -9.22957028654610   -1.69349223656057   -0.39009884113169
C         -11.77563022805493   -2.76213704698541   -0.27704727507266
C         -11.28778257169273   -4.04005681562774   -0.21834256043648
C         -12.06501180449915   -5.20313683057056   -0.23044489128262
C         -11.59470619892631   -6.51617678015725   -0.15068504097222
C         -12.58333142802998   -7.47128762626848   -0.22594891095758
C         -13.86690026468390   -6.93874379945683   -0.37410358474047
S         -13.80392448082768   -5.19433603635625   -0.39513117047209
C         -15.07136738907767   -7.63205221640800   -0.52978185281569
C         -15.25239291497449   -9.02191441746318   -0.55944935760960
C         -16.55113611840011   -9.39983596478096   -0.78197453249137
C         -17.44259845042507   -8.32286829320020   -0.93669896808218
S         -16.58842987216786   -6.80741954121713   -0.76871870775173
C         -18.79488126122679   -8.42546619382055   -1.21921352773317
C         -19.65279088890628   -7.33388794827307   -1.37620457741300
C         -21.00118256222009   -7.42578377104619   -1.73427719033997
O         -21.79745385592679   -6.31151016506912   -1.86017708075180
C         -21.19952995653412   -5.11103235610987   -1.63415586600822
C         -19.82256937519559   -5.01168748256605   -1.28562634470463
C         -19.41259720906029   -3.73214063157032   -1.10498020874324
S         -20.70910994948057   -2.62491134050131   -1.35879643944003
C         -21.81059648323284   -3.90080686136723   -1.71154090543105
O         -19.04094429716810   -6.11618879460253   -1.15443484364514
C         -21.66129630785787   -8.64267826701164   -2.02221674497722
C         -22.96547105861045   -8.71780479358418   -2.40984066677261
C         -23.59559003543815   -9.94602125486635   -2.71957210595243
S         -25.27391791909738  -10.02193331979562   -3.24893251000193
C         -25.25719318615206  -11.74766579320023   -3.42363066536276
C         -24.03426174321004  -12.22135807420177   -3.09045834491154
C         -23.10859066241598  -11.22908597590162   -2.69958423849665
O         -21.91604182208179  -11.81553371374071   -2.38871994790347
C         -22.11674428768380  -13.20498089991555   -2.59049799521351
O         -23.43821015588807  -13.44719627786827   -3.03189683326775
H           1.48715323386802    2.31296108690259   -1.87322032274600
H           1.39173333022811   -2.69135977915399   -1.70319894484111
H           4.24134585951768    1.99134510008753   -2.30295093308064
H          -3.85992279536851   -0.92361786081337   -0.98211144099381
H          -3.53449120232430    2.12418089062282   -1.10113737193334
H          -5.84844410591037    3.32600015906291   -0.85940660050183
H          -8.36122204554203    2.78682097992562   -0.59000151106031
H         -10.51519099727870    1.69365884358275   -0.46548124918658
H         -12.44105267403524   -0.02038064492183   -0.32219223997656
H         -12.84751445158428   -2.60873343435793   -0.29676592669753
H         -10.21558676510077   -4.18389941942131   -0.16803150027287
H         -10.54767066100203   -6.73762135638637   -0.04401748345313
H         -12.39945310706931   -8.52941682085402   -0.18516915818277
H         -14.44036738928788   -9.71326893123740   -0.42501573792710
H         -16.88424346501844  -10.42061873748468   -0.84406583452259
H         -19.19469355348347   -9.41889090275501   -1.33033363898116
H         -18.43544673155002   -3.38640481327290   -0.84104258866927
H         -22.83158935574613   -3.69195527624176   -1.95274130678147
H         -21.09776513392805   -9.55677892208029   -1.94431341334344
H         -23.56152275954841   -7.82293133414209   -2.50190267768270
H         -26.13071735195132  -12.26920742269976   -3.75159220905994
H         -21.94370397960933  -13.73786476135722   -1.64260268476976
H         -21.40499958789202  -13.56807316295457   -3.34781153978943
