77
 SCF done       -151.143744935766          0.000919241914
C         -10.80747424413546    3.51847185894814   -4.87614400981934
C         -10.64922130947036    2.51542791008758   -5.79205141988692
C         -11.46305219791870    2.34239649967556   -6.93258824879732
N         -12.08776158917700    2.14736323613863   -7.87527295551385
C          -9.65425355926226    1.51658906318998   -5.72366816063956
N          -8.87885008094324    0.67067844931405   -5.73069982570877
C         -11.82007598093907    4.55952288238912   -4.89870027978460
C         -11.63937033097516    5.42300860023960   -3.78435641004238
C         -12.45963760422650    6.50044088407456   -3.54272626241458
C         -13.50637775461626    6.73830914302196   -4.43850676592307
C         -13.67814038732127    5.87339857962704   -5.54968604556644
C         -12.85157980024956    4.78636040544786   -5.79523926283766
S         -15.03016343741411    6.35424465986656   -6.52678193983488
C         -15.34036990288879    7.68914490327864   -5.44253395312922
C         -14.47842384517330    7.77386642507750   -4.40255262313040
Br        -16.77438301088441    8.83874078792089   -5.79263909435291
C         -10.47875083791469    4.97531843246576   -3.00231542912563
O          -9.98254066506550    5.50046785760433   -2.03327591496094
C          -9.99148332479016    3.73286619181450   -3.68254005368746
C          -8.97145097173802    3.01079904416672   -3.19963124036851
C          -8.32387406213625    3.37079078780993   -1.92849855095359
N          -8.98648145475388    3.11101000835493   -0.81419978296468
C          -8.40647683012920    3.51126417410326    0.31924596867363
N          -7.20057586496590    4.08491325245041    0.36271397522252
C          -6.60319063487704    4.22838311572832   -0.80153228859143
N          -7.10346732739567    3.90107312523108   -1.97806785629284
C          -9.19981557913074    3.29285346996036    1.51032949967765
C          -8.95432099089442    3.69949905151455    2.76260354856831
C          -7.75802859270593    4.45685306672819    3.21907417904793
C         -10.00955812251412    3.46720520972925    3.82291090544094
N         -10.78743069487346    4.67194730507858    3.99603095662096
C         -10.59561818390311    5.55903960329454    4.98932181016509
C         -11.11358172347147    6.81916758487816    4.99808261472798
C         -10.99807335913008    7.69546883728966    6.08770699184344
C         -11.51618440998889    8.96594440313942    6.11708758212035
C         -11.46951677401309    9.88962860944038    7.18711767551896
C         -12.08909275050840   11.07570131838975    6.93061180330870
C         -12.65200414742586   11.15804531548933    5.63694192303125
S         -12.37824778049312    9.67866427989677    4.75576171383481
C         -13.33491606856425   12.22006317795463    5.07014067073614
C         -13.66157009426216   13.45978869740573    5.65351514740839
C         -14.34646751854201   14.29157708658891    4.81952940308086
C         -14.59179102439962   13.75790273373813    3.52710509233811
S         -13.92259898911871   12.14709684718106    3.41939656985956
C         -15.26422698397352   14.44274379903210    2.54119240420686
C         -15.56738753146352   14.07869153843460    1.21783663231165
S         -16.48509736817501   15.21562221697398    0.24800478403414
C         -16.46908042083599   14.20593171502554   -1.14390944975294
C         -15.79388410977888   13.05219678544592   -0.88117210508650
C         -15.28624956628264   12.96421752411555    0.43419806095064
O         -14.58699181016442   11.86414467246690    0.84478586931212
C         -14.36895977044943   10.84967096375545   -0.00607738659978
O         -13.76429479014055    9.87211675890925    0.34898124912027
C         -14.90398295551276   10.96185515089860   -1.43506906291577
O         -14.70817045028977   10.08321477313269   -2.23272277060048
O         -15.59872492433659   12.05007490550264   -1.79724460412894
H         -12.30586722921236    7.14179205443961   -2.68896646658265
H         -13.02231900986771    4.15678652689755   -6.65264723252562
H         -14.52156333308497    8.53143566218237   -3.64088305714474
H          -8.57564852015781    2.14034816943818   -3.70287259954710
H          -5.60968705182935    4.66078638124401   -0.79607682395953
H         -10.11562134166515    2.75920076364813    1.29152986402322
H          -7.15273081985442    4.76642465442162    2.37421523887758
H          -7.15463821112666    3.82425928904273    3.87083564129908
H          -8.06594180372133    5.32881611031981    3.79681060639009
H          -9.54668774374756    3.21414068932861    4.77934465221396
H         -10.68011201190699    2.65498405734468    3.52585073698062
H         -11.25143618532678    5.01233495567593    3.16444535547441
H         -10.03652226226471    5.19170987228473    5.84041485267293
H         -11.65574228356966    7.16999261904799    4.13022606168150
H         -10.47477790926909    7.35118384949361    6.97061708917854
H         -10.98323255340045    9.64665855774204    8.11583383831841
H         -12.15321162327271   11.89005475773105    7.62965930028490
H         -13.39097292060107   13.70705740438537    6.66452724743084
H         -14.68377707139411   15.27753219589449    5.08643275772916
H         -15.62056518575863   15.42610529286693    2.82057731617702
H         -16.94080043462457   14.50441845640150   -2.05540765644735
