80
 SCF done       -168.001219641828          0.000862819898
C          -4.23488178360034    2.03369921699927    1.42162456276168
C          -4.63698863126792    2.61816328464467    0.24145398333803
C          -3.75473867256238    3.01977547742381   -0.78155090287299
N          -3.09871372101843    3.38049039658743   -1.65335947876628
C          -5.95483936050089    2.93489056451113   -0.13783779569402
N          -6.98127425190715    3.24088382236084   -0.55804989232700
C          -2.84894391246475    1.71902705562615    1.76090259200892
C          -2.81377634027069    1.19130871563394    3.07307688353202
C          -1.64980540379162    0.80164837950301    3.68630239088751
C          -0.45815480733413    0.92222572194417    2.96163474746926
C          -0.50284920081968    1.44286916421218    1.64793834016187
C          -1.68135385684130    1.84834684944492    1.03239198045759
S           1.07981636934831    1.50491397876279    0.93095638930883
C           1.76892197262423    0.83852291207003    2.38728130416955
C           0.86362627614147    0.58286718917084    3.36111200615335
Br          3.61912369362483    0.54322114391283    2.48486019088052
C          -4.18613741778023    1.16900751098519    3.62858840966261
O          -4.47543742283502    0.94946077186787    4.78506250545425
C          -5.06763400418144    1.60969764747335    2.52210703084769
C          -6.44250774643646    1.69883844791745    2.54839163409238
C          -7.31211309810265    1.07947809521718    3.46743811012721
C          -8.65947181222912    1.43388537191247    3.59314868803435
O          -9.48575989481603    0.83153775485875    4.50278151796459
C          -8.91146705169439   -0.10137578002402    5.31763932934835
C          -7.54711718005762   -0.47907716997482    5.16901087173602
C          -7.15988564884189   -1.41539046213517    6.07018308977367
S          -8.46315518820992   -1.85107227822532    7.11164272320627
C          -9.53787672302354   -0.75776809954918    6.32636665682761
O          -6.76498317914719    0.05501228400450    4.19822818664302
C          -9.28671038426304    2.43908780861022    2.82382080048840
C         -10.60178988006170    2.78821310075090    2.96404364253542
C         -11.19554779251689    3.75233407029764    2.13427392652817
S         -12.89040089397153    4.21342229966506    2.22941127057634
C         -12.79691581552143    5.33914780863613    0.86795196935987
C         -11.49004646981770    5.32752445130793    0.40819594189551
C         -10.62841015583015    4.47645634936820    1.10099910311185
O          -9.37539019016751    4.56478862768868    0.59344169402336
C          -9.47321375288159    5.45737976929426   -0.50160728590678
O         -10.79341323188718    5.97838558245449   -0.56550394934816
C         -13.94838648686255    6.03425098130601    0.47832413390585
C         -14.11697076610266    6.85514345454492   -0.61177907955121
C         -15.31449599184218    7.55111593963405   -0.91762390415515
C         -15.25885642513237    8.28748062921763   -2.06115492361725
C         -14.01598652589354    8.20286737550938   -2.72728601744638
S         -12.91335040806680    7.16955121086461   -1.84421097724250
C         -13.64571681605419    8.80497137864050   -3.91542535750898
C         -14.41012044635389    9.66567705530689   -4.73559983132191
C         -13.75875187873320   10.08108336726080   -5.85538250205768
C         -12.44235102875247    9.56637672634462   -5.98910697155514
S         -12.06214181181949    8.54185929281603   -4.61588796798267
C         -11.58875797251829    9.80928303346704   -7.03193316661061
C         -10.29374095429688    9.29318650295872   -7.21257439948894
S          -9.46767333151505    8.20519731139977   -6.10723057852592
C          -8.05496828474985    8.09083850746996   -7.07634973244524
C          -8.18302104809973    8.85150102285122   -8.21556885558121
C          -9.44104793621723    9.52262483607899   -8.28062091021085
O          -9.53811848326043   10.25899723048822   -9.40603316065421
C          -8.35962610486899   10.06628125367750  -10.05996653279303
N          -8.17766178042902   10.73063855409398  -11.29684899004713
O          -7.11581426662989   10.54210740240456  -11.85972427237687
O          -9.07818506591982   11.43137742315063  -11.70438918346338
C          -7.49712818619972    9.23127956547748   -9.40213361548673
H          -1.65665768875262    0.41092869627037    4.69186504966250
H          -1.65879027050005    2.24188969486889    0.03016624687659
H           1.11555556169764    0.17241489752483    4.32196388188760
H          -6.91167257327054    2.26575452912115    1.76002269342983
H          -6.19437184735456   -1.86186705526169    6.17853514982439
H         -10.55469857386243   -0.66418284732701    6.64558965952922
H          -8.70765090805600    2.94637748686514    2.07179332654237
H         -11.21975189187201    2.31796671189713    3.71403983184077
H          -8.76081131431636    6.28272057384475   -0.36660505218183
H          -9.23803365748776    4.91759051276582   -1.43121508041825
H         -14.81284786944738    5.89170561132915    1.11354558554164
H         -16.17613902470063    7.48452399352210   -0.27718512526014
H         -16.07244418464457    8.87883027762870   -2.44053426111352
H         -15.41358844118567    9.95303203496343   -4.47770243708833
H         -14.17791492317466   10.73674668246521   -6.59780025822125
H         -11.93610955264915   10.46207466662171   -7.82227004313435
H          -7.23405971372558    7.48310378072338   -6.75718494910688
H          -6.52159456153607    8.94344186023680   -9.73521059092562
