99
 SCF done       -193.369613703515          0.001073167351
C          -5.49623058105443   -2.39025663205964    6.08867881695327
C          -5.58711532842307   -3.61110100684077    5.45381606613898
C          -4.99596889440066   -4.79697332628706    5.93001126195711
N          -4.54539950367913   -5.80051790475495    6.26182414326455
C          -6.22224390228515   -3.84823867280556    4.22315730312685
N          -6.67541877866115   -4.13022515052498    3.20376158768339
C          -4.72128882686415   -2.13525353432679    7.30187326830908
C          -4.76936779390074   -0.74847555562951    7.58386573586426
C          -4.13143090644317   -0.18891629127964    8.66221598431213
C          -3.41515598584666   -1.04122756045088    9.51116592813175
C          -3.37611549923726   -2.42488668278162    9.22394475289702
C          -4.01772225300449   -2.99007404209579    8.12718750508512
S          -2.44349478044167   -3.29666859844462   10.40317532124664
C          -2.12385218792302   -1.80923797528474   11.25461313350907
C          -2.68432385628138   -0.71540754381955   10.68652042066617
Br         -1.08095664361048   -1.84122491426625   12.81392620068297
C          -5.60192367076550   -0.07517432636094    6.56383053802955
O          -5.82752723338963    1.11795318936419    6.49545281270794
C          -6.08668045160014   -1.14848388539774    5.67508286271405
C          -7.02904368720498   -0.97076790686438    4.67423988723381
C          -7.59505043585910    0.24750043824431    4.33180191421127
C          -8.59408472805129    0.38633706302358    3.37850382999313
C          -9.20821081833865    1.58052590272160    2.96020151581631
C         -10.15665146211236    1.41424647007351    1.98316542051502
C         -10.32852594256733    0.07567024264958    1.60269986519451
S          -9.27678905902917   -0.97413291591636    2.51618087969257
C         -11.13529914456349   -0.44087749440083    0.58600609427024
C         -11.86610589374179    0.25434009122367   -0.38312705298667
C         -12.38714626595846   -0.56756586955493   -1.35681408436127
C         -12.08233296759447   -1.92598733650365   -1.19322246647650
S         -11.19378321902015   -2.15791736841455    0.28894335931331
C         -12.50443063398322   -2.93534540870876   -2.07165856226866
C         -12.23006721471308   -4.28228498786446   -2.11461401298210
S         -13.26827973925122   -5.17657466261482   -3.27942348205685
C         -13.85963241158203   -6.42644616493028   -2.19529372052285
C         -15.12108809112430   -6.93183758402998   -2.20641424952160
S         -15.33447904528249   -8.14509495757688   -1.00627156336704
C         -13.71448183591786   -7.95516682619622   -0.46874822329295
C         -13.04595234411061   -7.01527778003060   -1.19185715201353
S         -11.33660164832164   -6.67502394059809   -0.98006452185045
C         -11.19164884020732   -4.97738681898969   -1.43830819369100
C          -9.97397254475404   -4.36489440312082   -1.18589227292433
C          -8.93744812194596   -4.90626298689931   -0.42890867156221
C          -7.80281476331029   -4.25462395106228    0.01487763200458
C          -7.45002530937767   -2.90885901693024   -0.10648610515077
C          -6.47427546294412   -2.27358035977829    0.67914650268180
C          -6.46555620678140   -0.90352679186503    0.57733238121219
C          -7.41022799712190   -0.41028156627124   -0.33168742946394
S          -8.25750323296816   -1.72397079181613   -1.09772619271321
C          -7.81504302161474    0.90221280475647   -0.57249976231688
C          -7.38564169933710    2.08481929226650    0.04827315154418
C          -8.11377515850362    3.18798055300749   -0.31384493237252
C          -9.13411950604184    2.91860506673604   -1.24492821330652
S          -9.12438552401682    1.22659718780242   -1.67648276964495
C         -10.10096813404113    3.79247215199848   -1.71556873097975
C         -11.06603115168681    3.44311271294055   -2.65004609096614
C         -12.15814506025575    4.20118459452184   -3.02894881602918
C         -12.77895732318635    5.31413803612296   -2.37648972562199
C         -12.78082633179881    5.55316382688065   -1.01652677701025
C         -13.42223406577675    6.64717797194884   -0.41004548593676
N         -13.91117795715815    7.54017248483075    0.12244547046539
C         -12.25457969133281    4.63004807603768   -0.09920997569642
N         -11.89125096541478    3.85080463503591    0.66442730059849
C         -13.62016770870953    5.99045879175969   -3.36061393686858
C         -13.67774346636209    5.18437916664782   -4.52619437589385
C         -12.81951398078856    3.99233869106507   -4.33299193504517
O         -12.66999788222711    3.05662015085183   -5.08963451900175
C         -14.42823121716610    5.53078476055323   -5.62132711326327
C         -15.14314201858396    6.73419913359333   -5.56961116852764
C         -15.06815983757132    7.53485441093176   -4.40651642022857
C         -14.31784446025338    7.17860505827860   -3.29060240222581
S         -16.02008220362491    8.97980750745113   -4.56196825701561
C         -16.50327821568445    8.49339277603279   -6.16496844320501
C         -15.97848219795908    7.31106770936457   -6.56521945947311
Br        -17.65305183770177    9.59320873538498   -7.15870885821860
H          -4.18484887646502    0.87209547376305    8.84952657602273
H          -3.95879914461884   -4.05150137427405    7.95407723673160
H          -2.58890045663623    0.28040227168953   11.07932276625751
H          -7.37695163194419   -1.84498922571124    4.13539759365509
H          -7.25625127720525    1.14173043254947    4.83523117631403
H          -8.93493515789108    2.53077229894213    3.38259773571265
H         -10.72593630987716    2.21631987583068    1.54770964035858
H         -11.98078919890930    1.32333352723098   -0.36116014492911
H         -12.94929534478447   -0.21125303919946   -2.20200267882322
H         -13.21827751986052   -2.59126097340884   -2.81200200171720
H         -15.92424942826537   -6.67150964271266   -2.86471237714071
H         -13.33600691920762   -8.55135791438677    0.33639981073578
H          -9.84352999125008   -3.38871192589145   -1.62604392459134
H          -9.06378660584302   -5.92312975564037   -0.08050151969417
H          -7.14546928641819   -4.81698345521715    0.66517344434024
H          -5.85447538129407   -2.83370672927556    1.35555332032603
H          -5.82562707857956   -0.25770631208354    1.15114543357901
H          -6.57795168058459    2.09762115266693    0.75777040083030
H          -7.95391310983249    4.17659785867603    0.07746207011728
H         -10.07884899575965    4.79893261255947   -1.31976828912081
H         -10.92142535948130    2.52031799112408   -3.20356528763261
H         -14.46598892063586    4.89649127339917   -6.49309862507310
H         -14.28776847055079    7.81919077297660   -2.42445943383109
H         -16.17080709169583    6.86278661662053   -7.52284564467881
