75
 SCF done       -175.123208250844          0.000554173161
C          -0.85064044397186    1.51495289189678    0.27691531304167
C          -0.50540044900275    0.38189395465767    0.95761785273732
C           0.27246991129449   -0.66471233089934    0.41351454622114
N           0.90361262184102   -1.54203885510773    0.02923749684774
C          -0.85320533069038    0.10775583979040    2.29920774556340
N          -1.09649850867591   -0.17877748688996    3.38293253057596
C          -0.49736464067772    1.83517573080184   -1.09774192974593
C          -0.95929076797416    3.13943104584268   -1.41158315112625
C          -0.76256994102448    3.71849265769332   -2.64245012691876
C          -0.08719815508575    2.97468934612709   -3.61449582167423
C           0.36662208047348    1.67009658157024   -3.29479593957025
C           0.17342664678318    1.08671669592063   -2.05033756902300
S           1.18064777118096    0.93000051539093   -4.63838004274037
C           0.90722420287126    2.36015218559150   -5.59794177273312
C           0.23862504320762    3.34318839486492   -4.94749323591005
Br          1.52993402876278    2.42172616645256   -7.36383203323096
C          -1.61570956683970    3.72563525394107   -0.23445480516136
O          -1.94403524019671    4.87473355882357   -0.06735980105265
C          -1.65226239536979    2.62352605381256    0.78710942932160
C          -2.33305073135588    2.70599637514261    1.94362816227249
C          -3.26504837630626    3.77492851286417    2.21638126435114
C          -4.30477607993533    4.28620642942851    1.45212076246310
C          -4.74744914372722    3.83586459439602    0.12855446500685
O          -4.12638595745927    3.08758884419546   -0.58802566466551
O          -5.94798665303862    4.31331776046953   -0.19301332342344
C          -4.89963684616928    5.24204778486973    2.32596872504946
N          -4.25850101483747    5.27301591285915    3.46882830703461
O          -3.27602708878708    4.36683074984570    3.41064023800487
C          -6.03239473839683    6.11182499328764    2.10230348750392
C          -7.05002006745038    6.44383558215318    2.97206682669408
C          -7.29050629738458    5.80164945072293    4.30003039192182
O          -7.16353799689966    4.61486115896153    4.42139596766881
O          -7.64245606488035    6.58426937561057    5.30481113118841
C          -7.81457449193830    7.37586881196453    2.21063787743358
N          -7.27613609167254    7.54782299475342    1.02485679047780
O          -6.18521567738862    6.78347718425702    0.95815718978599
C          -9.00580432320266    8.07700281161709    2.62865871994070
C          -9.44264498295609    9.36733887278051    2.40519544174392
C          -8.83213886029868   10.50143547878702    1.69905786889487
O          -9.40252321574353   11.54667452340268    1.51510654691320
O          -7.58012560469237   10.26767570625083    1.31890917332115
C         -10.64585140103702    9.43860838163454    3.17250482409778
N         -10.88127486520380    8.28635412629308    3.75066234013948
O          -9.88573354630917    7.44740300231492    3.41244355291455
C         -11.48747529342033   10.60019767202063    3.33645762994579
C         -11.91931915142738   11.11614336324856    4.49809432312196
C         -11.64970502113343   10.77713115335108    5.89165839816045
C         -10.54114717186555   10.16416161333825    6.40627027366392
C         -10.31221960702917   10.00674557323069    7.79513621621207
N         -10.06912068464906    9.86558835000980    8.90652107362124
C          -9.43662604407224    9.65713648201399    5.69983606423889
N          -8.47013979274986    9.22275953378734    5.25246286989362
C         -12.70459304996002   11.39104359399602    6.68683950324794
C         -13.47235078001959   12.25529805445699    5.86284480071779
C         -12.97444858232723   12.18398723379718    4.47975613010825
O         -13.34857703251771   12.80188278648497    3.51587619968574
C         -14.52316186134719   12.99884141268884    6.34507486564352
C         -14.83912744040159   12.88044988586853    7.70202466668368
C         -14.08074396734397   11.99928662683478    8.51386508478799
C         -13.01775512318405   11.25041431745840    8.02807751271347
S         -14.64999568559287   11.99272818065420   10.15393515376938
C         -15.87593090331309   13.16060637909137    9.73810719637431
C         -15.86399690535159   13.53554785069504    8.43540799224763
Br        -17.05564850629304   13.77256194455054   11.05826517384306
H          -1.12235310181808    4.71418741652414   -2.84820587709289
H           0.53788739143295    0.09180135805208   -1.85603247010996
H          -0.01311023743564    4.29020388316084   -5.38872048313684
H          -2.24369224871682    1.96001123371687    2.72185475617603
H          -6.21455168042647    4.00014418067625   -1.07196184413750
H          -7.72855386946576    7.54161813320391    5.10960495412942
H          -7.21983809124116   11.03514525635018    0.84600836623220
H         -11.79502062252871   11.10249747123498    2.42587837011801
H         -15.08357234161383   13.65126740393045    5.69415659495826
H         -12.48130439430787   10.58421485724004    8.68260340808622
H         -16.54986494967348   14.24474917955779    8.00946334381174
