84
 SCF done       -160.375496768698          0.000577973662
C          -6.95034520542968   -0.52283013021552    1.20248830103735
C          -5.71654092658172   -1.13388890341702    1.14541655581026
C          -5.39249203093108   -2.33805014996846    1.80174502819793
N          -5.04296020928653   -3.30527412772202    2.31365377564099
C          -4.61711399400235   -0.69824772835830    0.38826505699879
N          -3.67589781589363   -0.45230548911524   -0.22993041936518
C          -8.10818620055237   -1.04573978489781    1.91381781304729
C          -9.19592200867815   -0.15493623804233    1.74225303545467
C         -10.43784666162587   -0.38962388738652    2.27762007892288
C         -10.61916039508889   -1.56257809252130    3.01774792327631
C          -9.53211929029626   -2.45488178797221    3.16961817091604
C          -8.27527103069411   -2.21773134006276    2.62840283070761
S          -9.98173662004711   -3.85800433971852    4.09086844712631
C         -11.60058895428917   -3.23243750717824    4.26056686102198
C         -11.79713975542593   -2.03638185576786    3.65755156782792
Br        -12.88018422870221   -4.22006782316594    5.21201992899131
C          -8.78187391279110    0.95428890268075    0.85843975997933
O          -9.51241843180577    1.76101034830138    0.32991622012560
C          -7.33007331801793    0.74591505977679    0.61591467793689
C          -6.54119645045954    1.55391851722753   -0.13830230486923
C          -6.80423960320504    2.91264569765437   -0.57485455596258
N          -7.59624551399271    3.72321413622006    0.12298769128359
C          -7.71258120724243    4.96107635251005   -0.32803823064385
C          -7.07338876148529    5.42310698190385   -1.46814121007643
C          -6.25849376038209    4.50696118360329   -2.14895652622274
N          -6.12690710562771    3.26220539242606   -1.66259318649744
C          -5.52170020202345    4.71053682626554   -3.36051221957890
C          -5.53683158717821    5.78681137345931   -4.18583061546892
C          -4.84711844360484    5.87485753401687   -5.41465551929589
C          -4.08102696423820    4.92880443535010   -6.05551104598693
C          -3.45994410814162    5.13615466435606   -7.31717492686940
C          -2.75090801689074    4.07554854829625   -7.78735774519735
C          -2.75567421070702    2.95365543008514   -6.92653925734139
S          -3.71369230356215    3.30353703204142   -5.50188847689022
C          -2.09668778265204    1.75488587968897   -7.10897711257428
C          -1.28291034321802    1.40185668199322   -8.21261444189993
C          -0.70313026355305    0.18046508122444   -8.09932634619295
C          -1.02452141237314   -0.52055360411218   -6.90367200500592
S          -2.12221983120477    0.45183371906008   -5.93475317033307
C          -0.46779397654163   -1.72958785845905   -6.58436828113251
C          -0.64068439557608   -2.58907563316357   -5.48078478389268
S           0.59820007934948   -3.83168308086247   -5.27348990289522
C          -0.16320046137122   -4.48159497438450   -3.88125957580230
C          -1.31221534210427   -3.81161677864192   -3.58228067624168
C          -1.58674916102842   -2.73788789950499   -4.48429946067762
S          -3.10534114890777   -1.93774397321675   -4.15715669393588
C          -3.38584607642571   -3.00448623013789   -2.79059950889351
C          -2.34702287461662   -3.96420418311931   -2.60108199606643
C          -2.60979856998811   -4.82269447237016   -1.57575838893830
S          -4.12087143899384   -4.48507285854160   -0.83182699055665
C          -4.43674616613580   -3.15082466830961   -1.91619889467114
C          -5.64755080183846   -2.40249029706185   -1.83753559397333
S          -7.09412594290665   -3.04934664237362   -1.11802214771885
C          -5.84253582783659   -1.11701036012005   -2.28403581520449
O          -4.86296567599504   -0.31608539312578   -2.78661858011538
C          -7.17740338406294   -0.64928523688253   -2.09478759054771
N          -7.53759622859424    0.63236282367795   -2.38450086875077
N          -6.99595045037050    1.33229623399718   -3.47383508949886
C          -7.98439309492603   -1.58480293705155   -1.45605858788730
C          -9.37362086529930   -1.47565348473762   -1.13594415975029
C         -10.07414762168678   -2.40008164126044   -0.47747059413014
H         -11.24755307745870    0.30639099115191    2.12409296019371
H          -7.48235516784073   -2.93392221965079    2.76387551961510
H         -12.73357612092907   -1.50897441936001    3.66167534376463
H          -5.54878407536128    1.22305716025582   -0.41234292460253
H          -8.34927894442550    5.60994587931722    0.26008619391640
H          -7.19043373507212    6.43937492884646   -1.80528594269037
H          -4.92077587908808    3.85209342447979   -3.61869879918477
H          -6.12721022332851    6.65312485900232   -3.91640600316909
H          -4.94563870931430    6.81184989185618   -5.94881693045453
H          -3.56121867048329    6.07253315893144   -7.83746657256270
H          -2.22422646881729    4.07337667068699   -8.72458784686548
H          -1.14574118977032    2.05976233834317   -9.05143681876452
H          -0.04634217502949   -0.25101561464434   -8.83406227001613
H           0.27866185434497   -2.07791357271775   -7.28961705472843
H           0.27333514488254   -5.31556606837643   -3.37025307430202
H          -2.00918990459949   -5.63236051704612   -1.21416040328054
H          -4.06798622942956   -0.37430583574261   -2.22630983129940
H          -8.49721639683377    0.89828343283642   -2.19563371467033
H          -6.60890308853652    2.21460260096681   -3.10740791148444
H          -6.21099595207246    0.80344132396740   -3.84884364958867
H          -9.86300924688644   -0.56841259834140   -1.46698243368509
H          -9.61252670683754   -3.30995795444495   -0.13126154942212
H         -11.12170674556551   -2.27445530185224   -0.27394651239100
