86
 SCF done       -158.972050790008          0.000768422558
C          -8.17451046316691    1.01382116212422   11.88594446005160
C          -8.36465110390650   -0.32605649267892   11.62243981590204
C          -8.09566715997573   -1.35768063327303   12.54127858231953
N          -7.90090364500128   -2.24858371141268   13.24094409129503
C          -8.84383407081228   -0.86918482409862   10.41527504656768
N          -9.22731227648291   -1.40392730327288    9.47208263107790
C          -7.66523592139630    1.55246446053037   13.14775848461722
C          -7.59116319448494    2.96170826139814   13.03898725517547
C          -7.15149657373236    3.76298893353934   14.06238931774240
C          -6.76712262788128    3.14341568140995   15.25741035431299
C          -6.84577495267606    1.73627428081974   15.35773117035436
C          -7.28915106873697    0.92480266755037   14.31891026310215
S          -6.32832833666991    1.17699976241699   16.92071430877926
C          -6.01814263926141    2.82173405274342   17.40934409125050
C          -6.28676158732537    3.74270483662007   16.45469057225320
Br         -5.37146129035831    3.16799572554387   19.13684500758500
C          -8.05955518912099    3.36941844576490   11.69583062712069
O          -8.12153853100152    4.51078568110837   11.27732396669360
C          -8.42585298301454    2.12087003474241   11.00648402476937
C          -8.94772776048958    2.05666856875553    9.72328873874201
C          -9.19427940228654    3.15170373571763    8.91219940001400
C          -9.75209447043361    3.04974511571014    7.64476479685926
C         -10.06246611182110    4.11043192711004    6.77539949550376
C         -10.63678400776588    3.71486237340043    5.59478631574079
C         -10.79513452639484    2.32534027146241    5.48644550437842
S         -10.19453397141790    1.52359975455799    6.91536673893407
C         -11.35793180496661    1.60686512249425    4.42973216868680
C         -11.93487515655914    2.10969583599309    3.25523547095552
C         -12.42768054651432    1.13371364585667    2.42397312405503
C         -12.24953732939042   -0.16975244591651    2.90617837292542
S         -11.43798310036495   -0.13300877488331    4.45518646770757
C         -12.64646668401481   -1.35401463394614    2.28813702877359
C         -12.40656727925195   -2.61225294907075    2.78862994911583
C         -12.81515384961087   -3.79968495528368    2.18720546567648
C         -12.55298441202296   -5.10135963048140    2.64254488055054
C         -13.08002126811540   -6.08929289813536    1.85265691864889
C         -13.79138233322385   -5.60431001934145    0.74190137459705
S         -13.76146921600634   -3.85501963218830    0.71940016706970
C         -14.45947482832867   -6.33693051771446   -0.22874204878008
C         -14.54682313570380   -7.74141174538623   -0.34199063396810
C         -15.28982361952633   -8.16322432912983   -1.40016992146439
C         -15.84640162449260   -7.11699910059419   -2.18996359222919
S         -15.35117686506578   -5.56801896123370   -1.51658571778767
C         -16.65320819998207   -7.31644364292973   -3.27170745772385
C         -17.30713690103492   -6.35653803407957   -4.12032974267491
C         -17.16261422802859   -5.01387345652593   -4.07706454811754
C         -18.18272460483027   -6.92008401241435   -5.08365584073896
C         -18.94084963453443   -7.40222005392946   -5.89338419168798
C         -19.82620030471698   -7.93411004024950   -6.83522751691642
C         -19.76407546841254   -9.21050825544247   -7.25110184273198
C         -20.58423718689714   -9.82986670909087   -8.26685436322653
C         -21.85724305611641   -9.52561981371889   -8.61850657780877
O         -22.48857404104475  -10.08999680975852   -9.71983597234806
C         -21.77164396244560  -11.03631326751924  -10.38726520944396
C         -20.46018216142344  -11.41155984174958   -9.97455806828138
C         -19.92006959064906  -12.37811395040821  -10.75486204961515
S         -21.00682416969764  -12.84856939262679  -12.01119670033124
C         -22.20055448227259  -11.72493528368663  -11.47232957168670
O         -19.84633405665901  -10.82102141721321   -8.91228524961905
C         -22.79569860093662   -8.64461321232852   -7.93425676262034
C         -22.90988116991702   -8.47604221708585   -6.62339421346606
H          -7.10657763727697    4.83473925523931   13.94772894720171
H          -7.33007525786920   -0.14370843650914   14.44759423324749
H          -6.15354473902304    4.80102736666621   16.58648502962013
H          -9.19504697532709    1.08195743335216    9.32074512032202
H          -8.95742748472195    4.14068752725059    9.27715637740238
H          -9.86119389949274    5.13266060846632    7.04170908394263
H         -10.94060384592716    4.39089164021917    4.81592793440968
H         -11.98558470781871    3.16249424037246    3.04479669724905
H         -12.90937810595113    1.32851006823594    1.48200423979577
H         -13.17512510692441   -1.25990039218968    1.34745665853516
H         -11.85628760657128   -2.70442118544823    3.71659540010525
H         -11.98279252156484   -5.28042166777536    3.53677495489391
H         -12.97563730728995   -7.14029220032088    2.05223267449534
H         -14.06149058911948   -8.39911821774096    0.35622281722463
H         -15.46756863043629   -9.19559731019569   -1.64434713102926
H         -16.85598512622052   -8.35241923297988   -3.51627581494066
H         -16.50369960905228   -4.52361221645245   -3.38530109718341
H         -17.70786835098711   -4.38744615323153   -4.76143361381676
H         -20.57787036090702   -7.25712218177751   -7.21829595903172
H         -18.95737420592648   -9.84362361199756   -6.90447784253089
H         -18.95772987093113  -12.83668055666979  -10.66769361963462
H         -23.13757788387736  -11.63925187957116  -11.98115772504203
H         -23.52089825602026   -8.20333068401013   -8.60593030478349
H         -22.24225679119670   -8.94756375148850   -5.92286654787500
H         -23.67901639116173   -7.84725582989192   -6.21064916927238
