84
 SCF done       -165.072987379199          0.000561989609
C          -5.27649722329952   -2.92151052483748    5.65521887916295
C          -4.84300672577128   -2.16304118270767    6.71537543690348
C          -5.41584478209184   -2.19102806525885    8.00135339763494
N          -5.84023602173531   -2.17600921964632    9.06853016458412
C          -3.77205799715542   -1.25344936074601    6.63130082642496
N          -2.90959901074106   -0.49416974050607    6.60668675086720
C          -6.39592471611855   -3.85603802773662    5.65081239076980
C          -6.55493932734595   -4.39528864243373    4.34477231490851
C          -7.53142368406146   -5.31012371962712    4.03735078159481
C          -8.39217025005653   -5.71734952676634    5.06309674237079
C          -8.22605846304793   -5.17619011883611    6.36042256748242
C          -7.24017665787088   -4.24864113044058    6.67312503673950
S          -9.39350695181760   -5.82007712479550    7.47487712153159
C         -10.07850355598189   -6.79427479224509    6.20105933424245
C          -9.46672320231660   -6.64571510104988    5.00188068873202
Br        -11.53497859271256   -7.91522520537908    6.57445115363577
C          -5.52479501256187   -3.81588769782243    3.47031067874222
O          -5.31113655025516   -3.99968637724696    2.28649034373878
C          -4.72176663764990   -2.92972167966590    4.32294734990065
C          -3.61788920267538   -2.33835906683482    3.79634490112860
S          -3.21062153175870   -2.55911115264859    2.14618045072389
C          -1.62751696315406   -1.74603993524938    2.19913218541079
C          -0.65100193093301   -2.05797287353609    3.09483198349038
S           0.74642622157439   -1.08313298804363    2.90138604265898
C           0.02870541174252   -0.25917845769690    1.57755169467924
C          -1.23183683317235   -0.70418567082624    1.31446409144253
S          -2.25603833061272   -0.02996276438205    0.04205075920023
C          -1.91868986789740    1.65559434699713    0.35138798400329
C          -2.01255661599050    2.64993601065534   -0.54434689512095
C          -1.75097233814446    4.00131861051091   -0.16101605823308
O          -1.54267829239121    4.24917092910106    1.17639727605465
C          -1.28690155843503    5.56389406786046    1.26892901942110
C          -0.96025339616524    6.54199694935028    2.23032036945547
C          -0.69798441816099    6.19012289697986    3.63927238899853
O          -0.04680388352430    6.86400395415502    4.42689418791148
N          -1.21806454672253    5.00058482177372    3.99707274008208
C          -0.83224829659282    7.72507100542776    1.46637313046006
O          -1.03951902777382    7.47082569920964    0.12289422749132
C          -1.32186824925680    6.16267056730924    0.01403658401843
C          -1.62821129530044    5.15775301141779   -0.91545138399594
C          -0.50717694396502    9.06683340879495    1.74529149017022
C          -0.55821901548244    9.72899950672717    2.94664294263272
C           0.02708398691381   10.99094028084538    3.24628473696023
C          -0.03113317560392   11.33346001714626    4.56404397312845
C          -0.68344749103933   10.36551449212253    5.36049240305204
S          -1.34927220752591    9.10279245893702    4.35807666688545
C          -0.66537951390163   10.15109835650241    6.72735203165018
C          -0.08773984869318   10.87487785306697    7.78910369990022
C          -0.05401148164726   10.18596649030574    8.96930120926440
C          -0.58592930712881    8.87695237384324    8.89477853666828
S          -1.26046629706473    8.61161139609385    7.29995697092557
C          -0.59616212706526    7.91267453023804    9.87533133342386
C          -0.93026165294613    6.56014123096187    9.72238195806436
S          -1.31507206398409    5.64097125273163   11.17288819392291
C          -1.64055661580225    4.15827617908608   10.32935046519126
C          -1.42142464004478    4.35625616229395    8.96817020187813
C          -1.02116898075581    5.68732371909913    8.62855190474669
N          -0.76866617202575    5.67024464628531    7.29665661803177
N          -1.00758302994380    4.45678917900619    6.77802116672993
C          -1.39570048530373    3.65537890641703    7.73748118017456
C          -2.06000792098254    3.00698595151942   11.05896864173533
C          -2.40008308074395    1.83209781185893   10.52011561281737
H          -7.62948640534405   -5.70313252674502    3.03760422159003
H          -7.15101382083485   -3.86602453479998    7.67643424324342
H          -9.75944690246245   -7.16920932327514    4.11010019320002
H          -2.95251211177372   -1.71943924384282    4.37543255330637
H          -0.68067625101555   -2.80190305905898    3.86598676252164
H           0.56863110818448    0.51626276706512    1.07195993619846
H          -1.63930216543466    1.86183774959026    1.37290821358245
H          -2.27202952532737    2.46821030928525   -1.57478700241623
H          -1.74760881128495    4.44201608743663    3.35321461620288
H          -1.08100120043045    4.66355777530137    4.95105486571284
H          -1.74058673351935    5.23597878467966   -1.97620171993893
H          -0.18473975140862    9.63084657203001    0.87906131090249
H           0.53143308526433   11.56563903889549    2.48951387505361
H           0.41741759016358   12.21465686252631    4.98732866389239
H           0.31312719375903   11.86325377812205    7.65104014093148
H           0.38575888043951   10.56047256039540    9.87714338237864
H          -0.33977922842021    8.22741743879235   10.87896249262632
H          -0.46209539698244    6.40316170977116    6.66699682115678
H          -1.62741841765876    2.63171779792948    7.52574628831827
H          -2.10201632161665    3.13910905241805   12.13267303131193
H          -2.38275246135613    1.66040519652085    9.45924885544765
H          -2.71217397979906    1.00887627743188   11.13749867775234
