103
 SCF done       -214.543872461396          0.000793915680
C          -4.75008663192204   -1.58379815134795    1.46731097943152
C          -3.94529791538240   -2.29073100656270    0.61209521926233
C          -3.47002021358045   -3.59306744034443    0.86984312757109
N          -3.06017656085814   -4.65383277987195    1.02702448631659
C          -3.45072551311643   -1.79760845417114   -0.61423535545241
N          -2.98163715202917   -1.45862446983065   -1.60570299769380
C          -5.17646565783017   -2.01251731031666    2.79344276634263
C          -5.87304694566011   -0.94605551548846    3.41331457949418
C          -6.39293376782525   -1.04047010102384    4.68124933002146
C          -6.21270947503324   -2.24253553954406    5.37347939721201
C          -5.52057536993211   -3.30451066743567    4.74370539208008
C          -4.99786141052669   -3.21062560515865    3.45973320759986
S          -5.42132678871746   -4.70133565747357    5.77232746066557
C          -6.29555375050808   -3.85066844157455    7.01820204983729
C          -6.64576418244694   -2.58602881182809    6.68333135444904
Br         -6.66432840205919   -4.71154621403329    8.64289397999128
C          -5.95631556066195    0.19768661806680    2.48387395243107
O          -6.59230653043214    1.21571403443130    2.65633791908887
C          -5.23376228081396   -0.23400760101774    1.25961721079297
C          -5.22431178920264    0.46042881821125    0.08621599067458
C          -5.50319529834924    1.84920894554575   -0.04328903567859
C          -6.16430140516027    2.34912074580603   -1.18320592518241
C          -6.53378029986861    3.73399825206729   -1.28764408430971
N          -7.25069135028934    4.13334204251314   -2.33314784874162
C          -7.61646716191477    3.28078295329885   -3.26861266294534
C          -7.22243400153702    1.91289975568323   -3.16945257124688
N          -6.52446835427093    1.48504977043772   -2.14600171915344
C          -7.59546218577554    0.99639723000204   -4.18714551641104
N          -7.92254640406463    0.28581342555503   -5.02297908381468
C          -8.39896523983409    3.74679792931512   -4.35023758331989
N          -9.04303148168083    4.10181092252368   -5.22906412507916
C          -6.18649843378054    4.72754084324168   -0.31462081432754
C          -5.45252152908912    4.21910355771888    0.79363336874043
C          -5.12438321728269    2.81335709205980    0.91435949017866
N          -4.41255809739399    2.55867467352533    2.00850568165649
S          -4.23554072574615    3.90767203246450    2.84963454422049
N          -5.01059605743030    4.89707752323080    1.85047158242837
C          -6.65310262775554    6.04624234287662   -0.51478229812998
S          -7.91844633567327    6.30054934588983   -1.67580485481009
C          -8.10723704816393    7.98998291616339   -1.28015971792402
C          -7.12379958470248    8.38245447782323   -0.32992866133504
C          -6.30439320717258    7.29099048533072    0.08975512395414
C          -5.23919914507257    7.53584123239833    0.96453510214794
C          -5.04537809437361    8.79514431714676    1.46972477404593
F          -4.03409146789265    9.01851966948128    2.32282266403764
C          -5.88500943182220    9.85407483329159    1.10265091992870
F          -5.68997338492280   11.07843811814182    1.62343655649898
C          -6.90225309604902    9.65798217422006    0.20360500134619
C          -9.13809913011263    8.64963125229036   -1.94050133232148
C          -9.49959057570988    9.98267540052026   -1.88500782731930
C         -10.60502245690464   10.51064159716570   -2.53276431396426
C         -10.92375520721111   11.86143076950708   -2.48731444738226
C         -12.02877714518505   12.52050207266351   -3.05704820734098
C         -12.04641207734814   13.87455985863146   -2.84365314758014
C         -10.94388713552090   14.34020690768632   -2.10741907848446
S          -9.90033039196695   13.01637612514139   -1.66516964068687
C         -10.57116127285057   15.63818162003969   -1.77644606206408
C         -11.18392952252373   16.87304905830147   -2.05891698720207
C         -10.43095935399295   17.95168185339682   -1.68526251051691
C          -9.17342566181504   17.61987579281993   -1.12786828648706
S          -9.03837751775388   15.88824328537827   -0.98642358090048
C          -8.18777800361800   18.49995296165652   -0.71450626998119
C          -6.89211796795312   18.19913663144769   -0.28650365493558
C          -6.09882488288857   17.08693343617233   -0.48937134850007
C          -5.00187750078420   16.80642694205999    0.48042806559794
O          -4.58095825604950   17.55781221062587    1.33047130031928
C          -4.59206268199602   15.41245656601758    0.21209590442395
C          -3.72576104385936   14.61325555258397    0.89998893729873
C          -3.52496224038466   13.28094696306059    0.46879459271329
C          -4.23729839255494   12.80036292390981   -0.66751935811405
C          -4.04865077704315   11.46848788649722   -1.08162754496130
C          -3.18194549748569   10.66873336077946   -0.39026116053512
C          -2.46486085718185   11.12207655373234    0.72362733729122
C          -2.64300673027585   12.41210142148464    1.14208948254919
F          -3.01642704908385    9.38685623392904   -0.78129181122388
C          -5.12291754386239   13.65352961154628   -1.36631888822328
C          -5.28862225592676   14.94053392396477   -0.93703002352790
C          -6.11481552558516   16.02658986177891   -1.45504052142948
C          -6.67262735858491   16.06036639496799   -2.71397465046468
C          -7.27619102304272   17.20464092527951   -3.26503552481604
N          -7.77330564611340   18.11944198854929   -3.75017137548778
C          -6.69168024724222   14.96917100339894   -3.60212223550043
N          -6.79238625701670   14.10160440750855   -4.34865061307383
H          -6.92117440038653   -0.21205356160197    5.12679990844003
H          -4.48473245539625   -4.04930186563538    3.01946404064250
H          -7.18813428184117   -1.92217928698362    7.33152320194502
H          -5.04181115719428   -0.06039345724412   -0.84557559565584
H          -4.57818440791667    6.74434245339030    1.26733949650351
H          -7.50502396432143   10.50635162568231   -0.06588014786015
H          -9.73725750481793    8.01191327221174   -2.58147187920910
H          -8.90538916513620   10.67981731055412   -1.31514722194381
H         -11.25748444685690    9.85785652440151   -3.09646344956862
H         -12.78002068881755   11.98621784736734   -3.61120537902123
H         -12.81026171443081   14.53691098285332   -3.20898299153037
H         -12.14443740738783   16.93969659120244   -2.53680275396709
H         -10.71931883038437   18.97559776179311   -1.84079346421394
H          -8.48447756230000   19.53990079273183   -0.66174307814298
H          -6.43028867913448   18.93905707865866    0.36243537722539
H          -3.20080063920920   14.98757806932453    1.76589779465402
H          -4.58465189421060   11.08376163281970   -1.93582901789940
H          -1.80223601569890   10.44298840673043    1.23565269016635
H          -2.10915903334204   12.78013111987754    2.00484796445801
H          -5.65546999876477   13.26212002943867   -2.21852905949989
