88
 SCF done       -188.647238722297          0.000645221903
C          -1.75085074173687   -3.83137492434653   -0.81875601610647
C          -1.51495352898400   -4.27243542031089    0.46317652467171
C          -1.28640825762600   -5.62058495823948    0.80753106631583
N          -1.09765781862201   -6.69717648755989    1.15919985846595
C          -1.41263178825821   -3.45649377477005    1.60311054876144
N          -1.29156427526112   -2.84977028587196    2.57369896020649
C          -1.72687262807236   -4.67504540260468   -2.00673991219606
C          -1.82672314093510   -3.84677593216844   -3.15008522385999
C          -1.81920841357517   -4.34415736604843   -4.42952933069097
C          -1.71792926920165   -5.73067525034085   -4.58980645904705
C          -1.62597410004973   -6.55227662385484   -3.44099307757162
C          -1.62623294473664   -6.04709784831815   -2.14668288332693
S          -1.51647760871313   -8.23373461975357   -3.86512668426398
C          -1.59309348657223   -7.81604400621745   -5.55606492138563
C          -1.69598404274101   -6.48629017366913   -5.79328902677595
Br         -1.53150234368702   -9.17369041411695   -6.84817336785090
C          -1.94113487007586   -2.43298239101013   -2.73076484505934
O          -1.97974986344944   -1.47602594672537   -3.47043310908659
C          -1.98725347075446   -2.46703992913085   -1.24659900058495
C          -2.27988279305397   -1.43924722153887   -0.38590894756314
C          -2.56517540247983   -0.08888702995695   -0.65070788852250
O          -2.63119996908844    0.40342724259795   -1.92087735875057
C          -3.00731561050718    1.65602759919309   -1.89242681584787
C          -3.21172404561499    2.07387033489753   -0.59466440240295
N          -3.63001577933944    3.34979863166212   -0.18008902334127
O          -3.76415473545946    4.20834562620402   -1.02464940305560
O          -3.83117542225534    3.50934761537479    1.01895691703121
C          -2.90974523852555    0.94873367817166    0.24813547433262
N          -2.98361767503471    1.01205798383089    1.59358084113093
C          -2.51206999141045    0.15948690335248    2.53285298709216
C          -2.79001607849444    0.29459066693756    3.86234895614867
C          -2.29931743397278   -0.53970646830743    4.90121058342819
C          -2.74760792218032   -0.19539129049120    6.13677486160017
C          -3.62281763308985    0.91876124918950    6.14615843392245
S          -3.84915473263876    1.53478709007353    4.52547503499681
C          -4.27475058224467    1.48023164708028    7.22499410189832
C          -4.20508555856560    1.08717628969950    8.58278897680554
C          -5.00253769020715    1.81804486415467    9.40610365048538
C          -5.75550372298549    2.82207616945350    8.74214747792284
S          -5.38197460744639    2.82475970844096    7.03380375643706
C          -6.68086404242313    3.65574753457402    9.31332130482839
C          -7.46458449745689    4.57423408497503    8.58750401952882
O          -7.25447587692403    4.76544699428723    7.25859724533086
C          -8.17799967164543    5.59380850614917    6.79541022684329
C          -9.02210966079477    5.99019112493723    7.80991946562489
N         -10.05214831287238    6.94830835838977    7.65313760433539
O         -10.44227989025586    7.16224489015960    6.52291134056058
O         -10.46885511407325    7.50179864033927    8.65196144214277
C          -8.57331393375440    5.32574314014224    8.99524059600735
N          -9.08267040881535    5.38196323057617   10.27434896071851
C         -10.37862178158670    5.51473100798131   10.63825072579326
C         -11.49280659948133    5.33356073652654    9.87704008082958
C         -11.68274714284698    4.72154638309762    8.58384453429619
C         -10.98445600518291    3.64107169715990    8.10036105686430
C         -11.19805845120136    3.06146699177690    6.83599375367940
N         -11.30619606227386    2.57216656551030    5.80308733411156
C         -10.05170603315411    2.94321402587584    8.89023604531604
N          -9.33751414705453    2.32880044792739    9.54887609367429
C         -12.88358215758162    5.30209212180814    8.00228367115519
C         -13.55321877134127    6.04622788530921    9.00713976375674
C         -12.76109652491304    6.01037330305212   10.25632974484901
O         -13.05365091799633    6.45913112423874   11.33870583492306
C         -14.73241405309865    6.70438907707748    8.76265791489642
C         -15.26177252687610    6.63697521231201    7.46810239966111
C         -14.57478241913602    5.90232204589784    6.47241941487286
C         -13.38852862995458    5.22316896285521    6.72000057431270
S         -15.39680550252436    5.97048687961007    4.94452262384259
C         -16.63958042379311    6.96538327419826    5.65391946798097
C         -16.44928841279922    7.23686618178314    6.96697631779985
Br        -18.07189363898380    7.55127648814996    4.59566771887852
H          -1.89198662057886   -3.68515088069967   -5.28040190076177
H          -1.55704474510843   -6.71547717049995   -1.30499394503152
H          -1.75460154310490   -6.05500607409365   -6.77594291682656
H          -2.36210063859810   -1.70130991143154    0.65699607273026
H          -3.11503515973897    2.18921677925013   -2.81800859049573
H          -3.41576639467026    1.88162056758140    1.92937935848138
H          -1.86361408558597   -0.64730336737599    2.22950589533073
H          -1.64656102237757   -1.36537958900578    4.68299708033425
H          -2.48529127083282   -0.71255400812253    7.04159103350014
H          -3.57722290182376    0.27816619555882    8.90972086813965
H          -5.09436610227132    1.66333793905779   10.46602912625407
H          -6.87880548405080    3.55908530060039   10.36858348586759
H          -8.16229511369130    5.86633271170947    5.75868238152078
H          -8.40121847755240    5.30826704168755   11.01710229083749
H         -10.53455969724862    5.88986352600584   11.64264583805289
H         -15.22905136791249    7.26229263855718    9.54065552961843
H         -12.88559443537552    4.68672486379322    5.93207029862747
H         -17.11623811387414    7.83668698177065    7.55890951341425
