107
 SCF done       -184.486650457222          0.000421377457
C          -5.03682756348229    5.49023312110982    0.74725010251879
C          -3.95562347039128    6.31653605028908    0.57983924192426
C          -2.92049344373907    6.46676741052312    1.52523508848131
N          -2.04767473872055    6.62485595282928    2.25428552912778
C          -3.74268512209805    7.14728494394646   -0.53969299804702
N          -3.51413341656537    7.86359516950064   -1.40787285573158
C          -5.33231081182087    4.70280397389206    1.93645470028270
C          -6.59964342618066    4.08948511215252    1.77826078027314
C          -7.16516464104575    3.29630097395271    2.74636199587262
C          -6.44759099792040    3.09966030469064    3.93068241641030
C          -5.17827497316065    3.70881308695864    4.07710473192709
C          -4.60506676730219    4.50887755492873    3.09742578682434
S          -4.46082092710602    3.32852693806007    5.61394886227226
C          -5.85837688671439    2.37401632178479    6.03391754144358
C          -6.81325159905464    2.33865160779616    5.07447096403433
Br         -5.92497658822354    1.51435633920925    7.69954902552877
C          -7.15407741235161    4.43209987625391    0.45227891011766
O          -8.17840325468951    4.00566921725205   -0.03399549351474
C          -6.13942741631807    5.31730724507496   -0.18165165845291
C          -6.20570392464760    5.75268601821416   -1.46705539055229
C          -7.35240497248573    5.62455049322902   -2.32470980330469
C          -7.16074495300647    5.11722932371743   -3.58460756640183
S          -8.60078098095118    4.74769854220284   -4.42208192021476
C          -9.53756181564874    5.37340316722474   -3.09516216012548
C          -8.75045349978715    5.85712303356837   -2.04156795227269
C          -9.38459473932918    6.51419481649349   -0.95843344657353
C          -8.55320900967236    7.31204163344317    0.01306172652721
C          -7.80190837480425    8.43992119517340   -0.69680351343557
C         -10.77264652273850    6.50111334394375   -0.86231619337879
C         -11.46936341557163    7.04307448260245    0.35850692368764
C         -11.78940264303738    8.53480005649897    0.23035369559834
C         -11.56243178296248    5.96397040971038   -1.90739606061072
C         -12.99798670196744    5.84866273959112   -2.05108254781700
C         -13.34138356398830    5.24931452957754   -3.22622276646695
S         -12.01569358326635    4.81406953263128   -4.22982345723125
C         -10.91856494375238    5.42335439253876   -3.03284264069055
C         -14.02909661758722    6.29163117494931   -1.13238530785673
C         -15.14514707011436    5.58714356404026   -0.87451330729336
C         -16.14596834955786    5.99518662675464    0.05744651307039
S         -15.93198141511080    7.41542658905615    1.03940164823019
C         -17.38964403281050    7.08535836797501    1.88789985444922
C         -18.01049517156639    5.95084052259823    1.47397762055908
C         -19.31174077120944    5.48959918584202    2.04276417370615
C         -17.30457675891420    5.31090387825138    0.40563289386759
C         -17.74868770878694    4.13867171712592   -0.30179379143770
C         -18.37345204492933    3.07325988173862    0.24959905726381
C         -18.85070182007247    1.94600016422290   -0.47726664384489
C         -19.16642745765204    1.94191148971310   -1.80324222085918
C         -19.62564958677308    0.81053224710429   -2.49713654692502
C         -20.08049125669786    0.82798995813444   -3.79167174950135
C         -20.52043786830306   -0.27728280852815   -4.55965484273269
C         -20.95388113857688    0.04322973010912   -5.80991281112404
C         -20.89983559519074    1.42528111072333   -6.10017663776783
S         -20.23677593857305    2.30304849320618   -4.73859324944398
C         -21.32840393283375    2.06553500755305   -7.24568216511424
C         -21.85731682794594    1.48277885712383   -8.41898224334932
C         -22.23133380769092    2.38667986111474   -9.36458663176346
C         -22.03445792867782    3.74268433701413   -8.99570610744960
S         -21.31493039447468    3.81307502098551   -7.39610477044875
C         -22.37645867962457    4.82714844520825   -9.75863054991228
C         -22.26044493412663    6.19076438184915   -9.42924059669976
O         -22.71671078100310    7.08757601479396  -10.37185564832965
C         -22.53326193135392    8.30478978991372   -9.84124826796481
C         -22.71650142950563    9.66698078187779  -10.10194765999457
C         -22.24309666810100   10.31150771953682   -8.96924472372638
O         -21.78126263957892    9.42297304003844   -8.03407356389466
C         -21.95969020266196    8.20457617652590   -8.56648811659453
C         -21.77976810301845    6.84749885292143   -8.29433859827937
C         -22.19542110826730   11.71929769938798   -8.69579700931957
C         -21.72207433708119   12.25023455109010   -7.56902159418290
H          -8.13340198282377    2.84537193192767    2.59516500574484
H          -3.63383924597330    4.94743068608381    3.25423490256164
H          -7.73768931233524    1.79841036106891    5.16702769542714
H          -5.30854564744313    6.13348080506286   -1.93936424465530
H          -6.21658583689249    4.85532160900104   -4.02361617775567
H          -7.83865844188729    6.67342344346100    0.53395923397240
H          -9.18401046739171    7.76083649107267    0.77495057001141
H          -7.05037324891335    8.05452219272905   -1.38140981243510
H          -7.30001985012874    9.06979307660922    0.03476555530204
H          -8.49633197669069    9.05460785903046   -1.26531056609094
H         -10.85854882586972    6.87328438438969    1.24600870874465
H         -12.39008912113610    6.47938871337202    0.50751328520090
H         -10.87897743026682    9.12900906776496    0.22947118480388
H         -12.41278253372600    8.85924046476392    1.06070206987088
H         -12.31456262913068    8.73843448136336   -0.69995678319039
H         -14.33645664002159    5.07156962988312   -3.58490016655754
H         -13.90743043324638    7.25192304233451   -0.65554157710076
H         -15.29262754641357    4.62071013262784   -1.33655349763097
H         -17.71245602582509    7.76708042083281    2.65030805291025
H         -19.83734045488799    6.32529697093393    2.49933018624423
H         -19.15007709060917    4.73400120443746    2.81157042524231
H         -19.93531788707249    5.05714478406365    1.26310302328032
H         -17.52041488804164    4.11572503996364   -1.35919303500171
H         -18.47337015362136    3.02213485845619    1.32487904184140
H         -19.01483216675637    1.03812320465876    0.09003882577107
H         -19.09969885942403    2.86231056427174   -2.36908207730483
H         -19.63163976363438   -0.14168531430243   -1.98216974967811
H         -20.50188964287320   -1.27613396786382   -4.16004684397081
H         -21.32476193706272   -0.67112286780829   -6.52293398880626
H         -21.94520600906165    0.41725831676339   -8.53335411014297
H         -22.65572576756028    2.12800904927575  -10.31859724994257
H         -22.80983367567513    4.62890850066563  -10.72961266152453
H         -23.12832226992046   10.13507839049977  -10.97127767626336
H         -21.36989899615474    6.39191891721088   -7.41879972998863
H         -22.58276180058553   12.34353745112946   -9.48850240765123
H         -21.33787730699400   11.62792191041597   -6.77953705494874
H         -21.70884094060013   13.31334285482697   -7.40848435941120
