101
 SCF done       -179.127300195533          0.000633812769
C          -7.81083196955066    6.28211518077995   -9.08975473081584
C          -8.85880623606594    7.16683694215676   -9.16817671815983
C          -8.75683254157921    8.53871260862392   -8.86984404651179
N          -8.73972039768711    9.65827006085482   -8.61239978965759
C         -10.16424512780738    6.81926180495134   -9.56098293856218
N         -11.24375696756957    6.58419449665802   -9.87756704809208
C          -6.44164465747750    6.62132767553456   -8.72191438638108
C          -5.62416549063018    5.47702658905002   -8.89067054274847
C          -4.28159301516361    5.47543546042761   -8.60917955921949
C          -3.73560415387771    6.63129838048344   -8.04035958215395
C          -4.55980877335297    7.76613812720051   -7.86505480799341
C          -5.90210873498741    7.79247311453571   -8.22228439031812
S          -3.69324550816528    9.06933941269003   -7.10856059968697
C          -2.27112056360617    8.06708002720120   -6.99866741684415
C          -2.42270545071455    6.83413510004573   -7.53504704671048
Br         -0.73552077347873    8.74226339212414   -6.16838544628533
C          -6.46560404781923    4.34158808927078   -9.30741192174319
O          -6.09909375730034    3.23624186007725   -9.65660291661442
C          -7.85130388369560    4.85127546582696   -9.30158565249856
C          -8.96557899406428    4.06501702952936   -9.40213199438302
N          -9.01453858193067    2.72646569517731   -9.20228415002423
C          -8.11503558882766    1.91011538367856   -8.55625875485189
S          -7.93638476360852    0.28727702654674   -9.14325620650506
C          -6.75607583961620   -0.01884912589941   -7.91969023194635
N          -6.11660152573744   -1.25916160964823   -7.91684618970544
O          -5.26731280944879   -1.46022672483280   -7.06456581535607
O          -6.44500893611233   -2.05488352638823   -8.78396163453619
C          -6.53513644567771    1.05675103956117   -7.10273350111907
C          -7.32324504822249    2.17769438532004   -7.43574887378038
C          -7.25618950565232    3.45989646200781   -6.77590810424320
C          -6.22040629447439    3.81230489105413   -5.99125339067110
C          -5.91415409963061    5.12687022484621   -5.50038657507968
C          -6.79397844003039    6.18184400782999   -5.43901904649994
O          -8.06587449190929    6.16790841192995   -5.87632914231099
C          -8.86501980540210    7.28869372067310   -5.56713035387771
S          -6.09769917193502    7.59515550150412   -4.69855415953708
C          -4.57729866722833    6.76210996326785   -4.49435286324508
O          -3.47990793394641    7.36625636892837   -4.00659247215868
C          -3.64373797598209    8.64615299344936   -3.44005580584839
C          -4.61091559084530    5.47897180045449   -4.97395118223526
C          -3.45502708128140    4.61554440051702   -4.95123076415384
C          -3.23660141615638    3.69101280953082   -5.91579358696030
C          -2.28782412870396    2.64687461542636   -5.94762505423824
C          -2.35353597855611    1.68934545610230   -6.92809824510220
C          -1.60418432202504    0.49388025585387   -7.06935353268911
C          -1.98562149550941   -0.29007977741693   -8.11565380815921
C          -3.04716336660449    0.24410219887784   -8.87967509694139
S          -3.54995615874059    1.78418499533102   -8.22090034926370
C          -3.67926584827618   -0.26117371632468   -9.99542146604326
C          -3.44944581237739   -1.47511865578687  -10.68608121190648
C          -4.24881682031809   -1.64538852319277  -11.76997261631856
C          -5.17024262779259   -0.58417398777168  -12.00598218999791
S          -4.95883971485061    0.64526872902336  -10.76897557025129
C          -6.05690259824497   -0.52406813261064  -13.04231289284660
C          -7.04128710663735    0.46161711189193  -13.32172539209905
C          -7.82324250354515    0.45457856480922  -14.43085912332156
C          -8.83211527901285    1.54563486875552  -14.32518923715305
C          -8.10832933954569    2.53988554521362  -13.41077361098194
C          -7.41826171149277    1.62309726680485  -12.41155441065360
C          -9.17381432650124    3.59616653184838  -13.15810903550532
C          -9.78767361093372    3.71905465181165  -14.58997902923409
C          -9.16220007000576    4.98164561360279  -15.11060713240864
C          -8.52231701067234    5.65189975511817  -14.16819764477968
C          -8.60698242919013    4.98265075675242  -12.82810304983786
C          -9.40624121861060    2.46013755484725  -15.36013658816436
C          -9.55031093911188    2.25687275929614  -16.65485955590286
H          -3.67840602110901    4.60116771127481   -8.79400249997238
H          -6.48217221457075    8.68948688169426   -8.08110689854487
H          -1.65279216892635    6.08481759349249   -7.55019043032412
H          -9.92898433822734    4.50652758444969   -9.62098486063437
H          -9.79725977835345    2.24292642609992   -9.62551642925806
H          -5.84085047292015    1.01197204304348   -6.28447484378684
H          -8.03507177683499    4.17141287502021   -6.98847139973813
H          -5.48860372421619    3.06375146485973   -5.73479253602261
H          -9.84847904317225    7.08699045421567   -5.98734585982273
H          -8.45442610256626    8.20077623733241   -6.01263140512883
H          -8.94775484302047    7.42693003159647   -4.48509206289584
H          -2.65431465829978    8.95890758020999   -3.11301720788497
H          -4.32680233203614    8.61485677595598   -2.58564608689372
H          -4.03096119577868    9.35666706852508   -4.17850565400087
H          -2.76232623823341    4.75142667882864   -4.13273504091576
H          -3.89967555523735    3.70947091441796   -6.77008257075302
H          -1.55702876721299    2.54756535572921   -5.15817482653670
H          -0.81901765579263    0.24297252372605   -6.37791966405134
H          -1.54048415788316   -1.23887222851811   -8.35631891608781
H          -2.70984878858677   -2.18212004082132  -10.35554496252050
H          -4.22241804030993   -2.50715870876719  -12.41340947556816
H          -6.01006597448950   -1.34313287952200  -13.75048745450136
H          -7.78650180553469   -0.27042607161866  -15.22372249692828
H          -9.69492291024044    1.12823703077998  -13.77308409972579
H          -7.32308882675679    3.01656385129046  -14.01123265981860
H          -8.11615142521131    1.26164478121540  -11.65072369917273
H          -6.57267043772053    2.08797675176676  -11.91135335524214
H          -9.90433094252486    3.25737292954825  -12.42023267746442
H         -10.87827903761841    3.82654187634306  -14.57430907542798
H          -9.25679926737625    5.26673095217423  -16.14330631607473
H          -8.00514356793138    6.58763174855412  -14.29517362305761
H          -9.27841189040334    5.54488625220767  -12.17218745653244
H          -7.63506760364775    4.91659316598386  -12.33421265804631
H          -9.97936802988586    2.99994003294139  -17.30536811704512
H          -9.24507493120949    1.33394499988069  -17.11738249567989
