94
 SCF done       -197.669707234119          0.000701700594
C         -10.66117184254885   -3.21296886992657   -0.86453481898166
C         -10.73211877570567   -4.03508253203186    0.22392399302121
C         -11.60658411013945   -5.13983565553214    0.32717294756554
N         -12.28929210999102   -6.05139951921317    0.46694483434899
C          -9.96200237593389   -3.90245310191524    1.40098302847880
N          -9.38741390384553   -3.86261317392495    2.39338900696991
C         -11.48119887158905   -3.30971659994399   -2.06316917758827
C         -11.14947885458515   -2.24698259131850   -2.94054757941170
C         -11.76701824781770   -2.06750208112059   -4.15547354458642
C         -12.76181638965251   -2.97760998265833   -4.52387080303347
C         -13.08605672988100   -4.03876085744394   -3.64282353952307
C         -12.46141053659961   -4.22147227981315   -2.41662239341617
S         -14.34014907976027   -5.04886818083834   -4.29467222323058
C         -14.41263276475759   -4.04671845989462   -5.71987284770781
C         -13.54268859273334   -3.00828898033725   -5.71096110155142
Br        -15.62755539537953   -4.46547328730171   -7.08449003087891
C         -10.08360258186836   -1.42604593781731   -2.34310661696707
O          -9.53329683263239   -0.47359774723227   -2.85043665699273
C          -9.78709263048525   -2.05152075647357   -1.02188774688291
C          -8.84526954647231   -1.60603340817957   -0.17331167425373
C          -8.11467281898209   -0.32697080913462   -0.39099902944879
C          -9.01000388083801    0.83825654654003   -0.06676023242630
N         -10.31878766596856    0.82013739341305   -0.16147783557027
S         -10.89951504220444    2.27469930264304    0.27941337198868
N          -9.46442455138138    2.95452516441619    0.61959229173252
C          -8.50978542035366    2.08381596587321    0.39492849272891
C          -7.04629658651077    2.36587459435543    0.55811562988415
C          -6.38345193639039    1.06939623886434    0.88575697934930
C          -6.87866341571357   -0.18398685869706    0.43429411726716
N          -6.13425302508278   -1.19224158469479    0.82886932019782
S          -4.89323963145803   -0.62385794753632    1.70963303871301
N          -5.28873173539429    0.94805721179968    1.59972623751757
C          -6.54549553675411    2.90984935651416   -0.75465180758523
C          -6.80340496368776    4.16036911722008   -1.17728013804824
C          -6.40546519432374    4.74432004845564   -2.42639051646708
C          -6.82121671268282    6.01645170098132   -2.59997072169832
C          -7.57944718671705    6.53698942536549   -1.51046737733790
S          -7.72139033130862    5.33721339136536   -0.23753176727453
C          -8.17124513527057    7.76808167159480   -1.41778477771836
C          -8.16843133909509    8.81298436846748   -2.38676121621327
C          -8.87377449794065    9.90659013017572   -2.02663807224709
C          -9.48135161244283    9.81360204856421   -0.73022117471972
S          -9.10870417290200    8.24575047395113   -0.01228342937202
C         -10.22214467352301   10.75361370769060   -0.11736233431233
C         -10.84548155429655   10.55803900445413    1.23864361137882
C         -12.24830623737691   10.07917309559165    1.02097957988469
N         -12.58289834283355    8.81912384098017    0.87153590780261
S         -14.18218499688132    8.71359045479783    0.61638998958258
N         -14.48523650669965   10.31087326346188    0.68748656452737
C         -13.36188079727994   10.95498512371779    0.91233986922539
C         -13.23236036184931   12.44726229985246    1.01312402617887
C         -12.03886504356544   12.73061983559990    1.87183513138927
C         -10.92826725251537   11.85303195351289    1.97683515098180
N          -9.99710362680720   12.31468392592886    2.77962800712641
S         -10.46745495046324   13.75340702158718    3.36805231348010
N         -11.89479840987502   13.81559944090180    2.59837154331124
C         -13.00999807386249   13.00682323392539   -0.36113350113698
C         -13.65101993792832   12.73837155631182   -1.50975643693673
C         -14.83649809812284   11.95703155712255   -1.84342604528136
C         -15.96283093412734   11.81787109036442   -1.08522606890567
C         -17.08689553659725   11.05852079647974   -1.47421813698032
N         -18.01611375820931   10.44164855081433   -1.74247325011613
C         -16.16491704119061   12.49857886099371    0.13255765418169
N         -16.37271774987713   13.10063962220196    1.08627366250911
C         -14.69095777117757   11.53243528207951   -3.22961290761449
C         -13.60688185419180   12.23470312899235   -3.81611668776046
C         -12.95739994516399   13.07554185510648   -2.79704015861937
O         -12.01522487098030   13.81821491109671   -2.93159628717303
C         -13.26236020752848   12.08815746811363   -5.13955129862004
C         -14.01426808106588   11.20146906962155   -5.91563775851383
C         -15.08261740323984   10.48999750611453   -5.31537990062500
C         -15.43603297759183   10.64214831998729   -3.98090859351712
S         -15.86922130038563    9.43955399843146   -6.45261510859420
C         -14.77524843471400    9.96808725018680   -7.70466988406853
C         -13.86310314230156   10.88042348058540   -7.29256389361342
Br        -14.93531284414893    9.25806591426528   -9.43204663358869
H         -11.49150223308700   -1.24711626291411   -4.79944975698639
H         -12.74290106651384   -5.04616497526660   -1.78356786758450
H         -13.45430077892873   -2.29304561089670   -6.50817230061636
H          -8.61119918574103   -2.13231983334684    0.74058388368347
H          -7.85974754807379   -0.23849430027996   -1.45924427563837
H          -6.89163481034582    3.10743528525669    1.34815372103242
H          -6.00062622187750    2.23451547081533   -1.39771661242328
H          -5.82704729062600    4.18152486499527   -3.13734347926661
H          -6.61478883626820    6.60768949900355   -3.47429023654506
H          -7.64206027696746    8.71201787369366   -3.31925652593827
H          -8.98939942538437   10.79275170729243   -2.62548216368820
H         -10.42936721859689   11.68313034106793   -0.62834515962924
H         -10.27057021874885    9.81558779693468    1.79912680543580
H         -14.13065445889496   12.88294352468017    1.46548567571236
H         -12.13230142726357   13.63802604812838   -0.46620014947387
H         -12.44087715955307   12.64455538536972   -5.56296828315590
H         -16.25341699056703   10.07718453120757   -3.56435573464001
H         -13.11439957026144   11.31133928565962   -7.93185010444046
