94
 SCF done       -190.548828203036          0.000889009633
C          -5.19255091914849    0.08988286388817    0.25883203194160
C          -5.31088484192928   -1.26091696230354    0.44453803280986
C          -5.12000696845134   -1.90217134691241    1.68774039005315
N          -4.98145334892735   -2.47330993509102    2.67338824079750
C          -5.55566073819206   -2.20897026169168   -0.57439635926657
N          -5.69651729615755   -3.04778351247479   -1.34420902257395
C          -4.75960078381479    1.04854758752847    1.26561630516960
C          -4.52597643377961    2.29302468794610    0.63202003028421
C          -4.07688212585624    3.39819158824117    1.31473319374024
C          -3.85326747216880    3.27076101761177    2.68899278900790
C          -4.09935043660078    2.02463194196197    3.31587063768393
C          -4.54982061105074    0.90687059322011    2.62523627249010
S          -3.76355161344446    2.08829002529485    5.01854673419482
C          -3.29925175847440    3.76238935983315    4.86857439685614
C          -3.39253396388950    4.25156059247370    3.60871812893502
Br         -2.73496224663275    4.70621041690182    6.38715668206742
C          -4.83443608477556    2.18955018313204   -0.80814152220903
O          -4.69955891936061    3.07642816649464   -1.62177343131712
C          -5.35474796761962    0.80566075730655   -0.99973412425688
C          -6.00435664311761    0.29952140221486   -2.08684957505511
C          -6.16493732350248    0.87590342808656   -3.36697538874214
O          -5.52297690517550    2.00316094267867   -3.75933736925787
C          -6.90985807681307    0.41596448501101   -4.44354294533783
C          -7.85284432999657   -0.62658993322833   -4.88385913109367
O          -8.33231963866134   -1.55493072791918   -4.29309666913298
N          -8.11165128885082   -0.28707987907855   -6.20855255512254
C          -7.46487126698682    0.85925112592752   -6.67361995649528
O          -7.56802774413812    1.31177247377478   -7.78191819907244
C          -6.69059628092596    1.31017607254098   -5.51162763668730
C          -5.82306066344769    2.28774889387362   -5.04328071426388
C          -5.25770854180978    3.43974898696859   -5.65381437314875
C          -4.53203888934688    4.32268943002685   -4.92889372591233
C          -3.90882448589347    5.48088895721583   -5.48047125306001
C          -3.27402442342892    6.43769454439534   -4.77753942441889
C          -3.18254662631137    6.49455885786424   -3.28941675124547
C          -2.57964595927971    7.57457771151986   -5.48731321941350
N          -2.08350744992921    7.20187137567182   -6.78537982057679
C          -2.27605214262029    7.90661714974812   -7.89942053324044
C          -1.76908363398685    7.58298301065104   -9.12355096406863
C          -1.99069849049079    8.41011376009210  -10.23977843777573
O          -2.75900176479363    9.51948458939616  -10.12242905954278
C          -1.51839155292650    8.34945226782257  -11.54853887677639
C          -0.69443624418823    7.57582074115774  -12.47098984076293
O          -0.07931661870028    6.55064885872491  -12.32743366719455
N          -0.75411403565346    8.31248510664809  -13.65986681167241
C          -1.52015114363566    9.46980821188592  -13.60460283631346
O          -1.69473691484987   10.23778579451905  -14.51393268530546
C          -2.01561599580468    9.48680701048401  -12.21966359352698
C          -2.78218163156142   10.19859773679325  -11.31220500337532
C          -3.48761102860085   11.41310468047724  -11.39869363328940
C          -4.23489321498402   11.88341731500943  -10.35467128841392
C          -4.87680518988561   13.12748053222279  -10.38247783340622
C          -5.68948480281138   13.73360362488983   -9.45841783140047
C          -6.19850395020891   13.39817036215243   -8.14857525105806
C          -5.79458472452954   12.43540648577421   -7.25218765407868
C          -6.35183987128310   12.26897060211360   -5.96307244382101
N          -6.72238232575602   12.04395717638983   -4.89917164370666
C          -4.77340099853300   11.47279729960879   -7.33295207724303
N          -3.99330862827620   10.63537484362920   -7.20475615889099
C          -7.24566906818253   14.37716049500480   -7.83025262457664
C          -7.28490837743127   15.36761627967496   -8.84122727810130
C          -6.29698137631625   15.02648612557154   -9.87705215868747
O          -6.03422040040487   15.65000255989547  -10.88139565434491
C          -8.15176104626736   16.43199412811026   -8.81611713482491
C          -9.03915995630601   16.52461350923873   -7.73913634126146
C          -9.01040871001485   15.52223002735672   -6.74165496407648
C          -8.12935170875221   14.44776887746907   -6.76873567444280
S         -10.19977209294809   15.81469200393421   -5.50854605451862
C         -10.70811586696158   17.26237329227439   -6.33690867898200
C         -10.02576839375095   17.51445195051227   -7.47927038585566
Br        -12.09168926880670   18.30311880814720   -5.61572615223157
H          -3.90289935465892    4.33263369027184    0.80449797624199
H          -4.72685622946592   -0.01845601500240    3.14715181428671
H          -3.14693467830307    5.26234605607144    3.33880014080344
H          -6.48460281845865   -0.66744843956118   -2.00343338812185
H          -8.73338949574979   -0.82908645689733   -6.79203278289261
H          -5.45477390216487    3.57191668309750   -6.70709014343917
H          -4.41120158644198    4.11952630818091   -3.87439413024315
H          -3.95761034352858    5.57560248549652   -6.55856960081856
H          -3.84090043900384    5.78065529133170   -2.80735125769130
H          -3.43972189048198    7.49617546225659   -2.94650741763667
H          -2.15910058036384    6.29206415553731   -2.97122980745307
H          -1.74948292492555    7.92745186463008   -4.86035887436424
H          -3.27154162814290    8.41440303744351   -5.61439278498464
H          -1.52484566523338    6.36089600864930   -6.83544270829510
H          -2.87229175462728    8.80431619711970   -7.79323779971112
H          -1.15801135497514    6.70853897883078   -9.28160263645517
H          -0.27427995354286    8.02077645572332  -14.49935233019046
H          -3.39944682306864   11.96063834074521  -12.32570969877017
H          -4.31651362310365   11.25986696550013   -9.48072466834579
H          -4.74098600440531   13.71808945385882  -11.28483983956390
H          -8.14669112865904   17.16742901002581   -9.60512975035158
H          -8.16536573702538   13.71159500776873   -5.98424125948513
H         -10.20942984598236   18.36227833116748   -8.11361852413035
