100
 SCF done       -217.828193913748          0.000754009668
C          -4.18400751766196   -1.75971428961194    1.10145933176620
C          -4.72704519277461   -2.72305524528289    1.91077823772906
C          -4.19309145509202   -4.01931158792323    2.06933663274580
N          -3.80172987221310   -5.08448986031793    2.24166781380063
C          -5.90561609801717   -2.56087451437796    2.66975256633318
N          -6.86795235813013   -2.50896327431241    3.29334703679615
C          -3.02388802693081   -1.91777271231021    0.23503047261002
C          -2.84494487141621   -0.72836216304505   -0.51685987657612
C          -1.81912124981822   -0.56991414787116   -1.41791202175401
C          -0.93102628790220   -1.63655372747879   -1.58399356999243
C          -1.12184498250326   -2.82527465275024   -0.83867710224173
C          -2.15747563939070   -2.98434048925077    0.07339337391997
S           0.10044147141144   -4.00602096781145   -1.19871235213098
C           0.84606600752611   -2.89483431854400   -2.31995342731170
C           0.21137856362378   -1.70506580410125   -2.42642259736762
Br          2.38677274327001   -3.41513438003412   -3.25409802440832
C          -3.87108472578757    0.25599944396751   -0.13623408409850
O          -3.92538343412745    1.41659795748182   -0.47280851748857
C          -4.72497002325701   -0.43153791669608    0.88209686661893
C          -5.71449004764912    0.18975563833902    1.57692901460402
C          -6.34365329054881    1.39355834091253    1.13374830432893
C          -6.77946529319848    2.38910121962119    2.04775548715949
C          -7.30322182170127    3.64811869161779    1.59798155724808
N          -7.65449159848558    4.58099095706272    2.48601856653760
C          -7.52095924194639    4.32540590237418    3.77078537582808
C          -6.99051131667484    3.07679160576553    4.21721614506663
N          -6.63125685138299    2.15154431692796    3.35901835349329
C          -6.84605613054579    2.82937157803374    5.60709907459189
N          -6.74086023169160    2.67478206512762    6.73655188127010
C          -7.91483431630783    5.31320670648883    4.70732327538082
N          -8.22490671415324    6.09860160163356    5.48130107921317
C          -7.41541486938595    3.96317645442252    0.20198785636103
C          -7.16470396371210    2.88531806604714   -0.67833061356043
C          -6.62707180100693    1.62981373466114   -0.21848987388034
N          -6.50231079999980    0.75211211534847   -1.22389982474243
S          -6.96039839038244    1.43978863295317   -2.57831731423367
N          -7.40425204351058    2.86576833549088   -1.98628923262350
C          -7.71448791139143    5.27675655042344   -0.17852643779358
C          -7.55575263621141    5.89774484396779   -1.40437809306834
C          -7.79064916754048    7.27839175573349   -1.61160174594608
C          -7.40118568328947    7.73766540706197   -2.83829796625483
C          -6.82923043966113    6.73363361252831   -3.64218806511744
S          -6.87329003975291    5.18947088080974   -2.84855191070560
C          -6.25664635137648    6.85953621061112   -4.91125290313836
C          -6.20155548431070    7.99351368005722   -5.73280599949083
C          -5.53925872517366    7.76210140999655   -6.90888164198281
C          -5.03281401369469    6.45162169888359   -7.04936832607765
S          -5.43713079781033    5.50180152622496   -5.64743981158409
C          -4.31708616911195    6.06231494861135   -8.17662571193274
C          -3.68421150511168    4.87694550703614   -8.53441297595024
C          -3.58737976150958    3.68709690455261   -7.74867902178988
C          -2.82399200005090    2.54038651458911   -8.19509491438655
N          -2.88142042801536    1.40447057952802   -7.48044151970092
C          -3.47962544585451    1.39684715124147   -6.31599442449177
C          -4.09596732535322    2.57537067155359   -5.80170941234434
N          -4.17801594052420    3.65759720347155   -6.56710178059399
C          -4.60302853530665    2.54825996681249   -4.50172568360546
N          -4.95232656399869    2.41692473814066   -3.41072947608387
C          -3.47819341472239    0.20529136954081   -5.54920298253372
N          -3.44404037791580   -0.73147014752185   -4.89014550713992
C          -2.04081138049398    2.55865523774385   -9.36752454648792
C          -2.19465177580964    3.70554381430333  -10.18847043294566
C          -2.99504906637647    4.82928031276724   -9.78599465780312
N          -2.97650767177299    5.80059554682289  -10.69029532016958
S          -2.04439333361474    5.35094518662001  -11.92668378375685
N          -1.61844643152378    3.90283609031080  -11.36890047102065
C          -1.18258813691493    1.50210015851614   -9.77073894441111
C          -0.63200241493960    0.51301539878703   -9.01259848779988
C          -0.51640898363626    0.33807092176183   -7.58349433096896
C          -0.31776529669716    1.32389268169037   -6.64777852220626
C          -0.14192402989578    1.07248179099610   -5.27683347471824
N          -0.02697927487824    0.93114293413386   -4.14240210121972
C          -0.30093327841633    2.69664387209212   -6.95591125750084
N          -0.31984377360364    3.82679106408441   -7.16079113869703
C          -0.41162731264927   -1.09262207238032   -7.33424936657278
C          -0.14707311450196   -1.74695585454683   -8.56455692436056
C          -0.16995114331745   -0.75075804212419   -9.65800658641362
O           0.06606501317537   -0.92497502145821  -10.82918089699413
C           0.02474733838757   -3.10717213714635   -8.64730954951681
C          -0.11336156604759   -3.85563105121469   -7.47217746152976
C          -0.43350247370514   -3.19389056890511   -6.26205640994263
C          -0.56745762539360   -1.81468307169982   -6.16802611526846
S          -0.64274361382404   -4.31696126065381   -4.95755973346974
C          -0.26103401493353   -5.64035315655142   -6.02462778398320
C          -0.01023391826618   -5.26308644099951   -7.30110156781714
Br         -0.23725525934038   -7.38789149813997   -5.35103689412972
H          -1.69722633703419    0.34349713813795   -1.97824344926420
H          -2.25631433472780   -3.90190227765490    0.62919244336690
H           0.52948575660188   -0.89240980539908   -3.05514230298147
H          -6.05392268731144   -0.19711783438138    2.52917601844499
H          -8.02688831860176    5.91867963860330    0.63769514642197
H          -8.22271971543335    7.89460827457529   -0.84284157645476
H          -7.49192586760624    8.75936997052133   -3.16005397198347
H          -6.64064577317037    8.93706677411217   -5.46235565152912
H          -5.39348845437782    8.50341503166903   -7.67469670235365
H          -4.21395648424905    6.83940249522379   -8.92675335177943
H          -0.98407548553011    1.45034831551427  -10.83626767764425
H           0.24200364156074   -3.58426474190396   -9.59004098286924
H          -0.82651677542715   -1.35403797543566   -5.22913964380683
H           0.23691376394084   -5.94861613422156   -8.09088509744233
