118
 SCF done       -213.381557291966          0.000751392490
C           0.05373428201482    6.78145623591702   10.59438884805868
C           0.28529535281749    5.43452383177389   10.73257531509522
C           1.10330322155752    4.87189727265392   11.73390613246496
N           1.75313824380892    4.34889217013730   12.52331044902251
C          -0.24087319687760    4.41665882776016    9.91212798280361
N          -0.62582446769583    3.52772940273334    9.29296288953921
C           0.61082696206671    7.81914490314689   11.45870823407912
C           0.17775686177555    9.08196725103084   10.98667441271126
C           0.52562848800328   10.26300620366178   11.59378102481786
C           1.34059092809341   10.19612512158858   12.72906162532605
C           1.76895129361814    8.93121556234226   13.19516641012899
C           1.41844109573395    7.73647198630225   12.57721331686256
S           2.76308296890903    9.07623533189859   14.61333980621965
C           2.58924346987193   10.81026187772500   14.56215842310523
C           1.82879418823202   11.26002539863670   13.53600003379195
Br          3.42791129917434   11.86391063898762   15.86790310323709
C          -0.67564015519583    8.88646394208551    9.79942143651207
O          -1.19568233879195    9.76867518993762    9.13930128093404
C          -0.76071932883403    7.43846093649697    9.59297674182503
C          -1.51173008040910    6.79637972679595    8.63651800039960
C          -2.35533473762511    7.30223741940260    7.64351485499222
S          -2.65387936057175    8.98745775603579    7.30657432507313
C          -3.75398442140137    8.58119159122420    6.03252019219545
C          -3.87177352561638    7.20053982394840    5.85979441556401
C          -3.09118513168957    6.48507798918881    6.76396102792439
C          -3.02791033742262    4.99012831427819    6.77118261581797
C          -4.14300034865083    4.37991826118792    5.92645147813668
C          -4.23658773422665    5.09078021957180    4.56927160197568
N          -5.14213858084718    4.46814975356773    3.62026738174964
C          -4.69061712834584    6.53449094700391    4.80097769184052
C          -4.36913258013682    9.67035708392667    5.35081864141816
C          -5.49032829988496    9.65538367643139    4.59727150219522
C          -6.00383658304971   10.85025461472012    3.99870182254946
C          -7.17464043239049   10.99756276825493    3.35448171653424
C          -8.21564491590979    9.94869629860501    3.16173761170682
C          -7.56600781374280   12.35809790203778    2.83807814408365
N          -8.33043996412929   13.04581325731890    3.86352755508981
C          -9.22781714885368   13.99650232516341    3.65094561904145
C          -9.48864848647496   14.58217602654918    2.42850950058680
C         -10.57767132664901   15.40813094633966    2.17070335618695
C         -11.00930550725948   15.70100770198342    0.83108680133055
C         -12.23172940180306   16.28059485497279    0.91132780616375
C         -12.57930820208472   16.42847181022919    2.33077357226893
O         -13.75669617057171   16.97364247532357    2.70975852510547
C         -14.57526448461666   17.30894617923192    1.68079956306372
C         -14.26225761053834   17.16388232918515    0.38486070412935
O         -13.07686465007357   16.66693530644019   -0.06379904193187
C         -11.56555844269518   15.93017628490326    3.09512731700323
C         -11.55106833699017   15.84642648466086    4.55328038149710
C         -10.82608659170518   16.55625833449816    5.45959636428629
C         -11.14237299099304   16.06630507858756    6.79167206242712
O         -10.56746195334257   16.60209643853232    7.90426858479382
C          -9.69379969626259   17.61559520141337    7.63216142260499
C          -9.39718201641182   18.05818855920542    6.40713431431187
O          -9.92850026512275   17.56265948793317    5.25014288705216
C         -12.03949998655084   15.05131133257849    6.69507744412510
C         -12.33986084769387   14.87858262875283    5.30301592934384
C         -13.14782685972578   13.97896979301793    4.65323938281415
C         -13.94707811503872   12.95388845056272    5.16224846235399
C         -14.69624419364729   12.15038464056252    4.32893446446543
C         -14.62244001412974   12.12606580514639    2.92537210328543
C         -15.84568444105631   11.96292537558342    2.12361398988860
O         -16.94398321195162   11.61000876270088    2.50590687034279
C         -15.47014089433819   12.38477771617317    0.74971817062861
C         -16.25595627714217   12.61530103527273   -0.33799900689991
C         -15.66478387777547   13.13116283702017   -1.51851776851514
C         -14.26516622074174   13.39180629575494   -1.54417881621455
C         -13.69192365038998   13.93515360599150   -2.70830046066476
C         -14.48649972858325   14.19317530963144   -3.79106011236653
C         -15.86160996251613   13.93563520635871   -3.79074714174147
C         -16.43465851242355   13.41113060084029   -2.66363764324699
F         -13.93695854873637   14.71805606881182   -4.90627495353510
C         -13.46999591327792   13.11497366633896   -0.40454942246694
C         -14.06771272034729   12.62000783214588    0.71816070382822
C         -13.52772045683783   12.33727704827675    2.04784319387203
C         -12.17653719745369   12.13915963673971    2.30108407194716
C         -11.61146763090039   11.82730975157590    3.54251768171559
N         -11.00299781682485   11.56389365385280    4.48580181838635
C         -11.16796752792986   12.15176832504906    1.33223597841371
N         -10.25080302542482   12.12362280091032    0.63360578908010
H           0.17736649983726   11.20830813127226   11.20813595656616
H           1.77075302765906    6.79948177724447   12.97439329459586
H           1.61866023837484   12.29827723271756   13.35467813536211
H          -1.46272027391518    5.71613246938142    8.64805705428398
H          -3.09267353717245    4.60532941675446    7.79143202932601
H          -2.05673492043843    4.67831494272310    6.37263237577891
H          -5.09932815551808    4.47903801002757    6.44727270244880
H          -3.94612328474137    3.31526843882147    5.78254980333157
H          -3.24356043312486    5.09953854899708    4.10420255772119
H          -6.06903623756432    4.37720843433891    4.02436572031509
H          -4.82004189173905    3.53843563865461    3.37638082707798
H          -5.74314028934237    6.52049263017702    5.10403071656005
H          -4.62124096876008    7.08944203632530    3.86405511346815
H          -3.88482366316971   10.62491573981052    5.52307229071336
H          -6.04401265942325    8.74258028668704    4.45945281876684
H          -5.36400846090997   11.72022430296313    4.09376147219681
H          -7.90630652343900    8.97989013279581    3.53713648273511
H          -8.45784733091398    9.85629764138460    2.10338792444592
H          -9.13309724500773   10.24643971095296    3.67363267066849
H          -8.18659424096069   12.25670483159209    1.94214684176525
H          -6.67881601496430   12.95250763428903    2.59017098206777
H          -8.29473532785483   12.62727090116624    4.78274698752262
H          -9.81028525840826   14.29219929389848    4.51130787642908
H          -8.89913315129317   14.29380235299990    1.57054647350774
H         -10.47100618933132   15.43824906574789   -0.05710090980908
H         -15.51800573027579   17.70826585582119    2.01169159197805
H         -14.92907054298000   17.43346947034773   -0.41476434057490
H          -9.25651544684332   18.03220702868682    8.52248340368322
H          -8.70108280020338   18.85908577099725    6.23022598405920
H         -12.46149664422865   14.48880167088755    7.50267487418553
H         -13.19452469147976   14.12232135059283    3.58113530287954
H         -14.04849977315905   12.84363377495075    6.23141754054565
H         -15.50624292859567   11.57105273175344    4.75669223367798
H         -17.31823766505028   12.42517997695243   -0.30316809833137
H         -12.63424904300725   14.14424944241543   -2.74448003987801
H         -16.43937287800447   14.15543643197734   -4.67450542604339
H         -17.49456365807556   13.20594962286530   -2.63875310895880
H         -12.41176818368569   13.32357377694095   -0.44248662940484
