132
 SCF done       -210.445191069033          0.000904397200
C          -2.79741962095324   -1.89434795466142   -0.13451377093127
C          -3.44728377786424   -2.50262156256214   -1.17919308611272
C          -3.13592262082156   -3.79188396295246   -1.65851822037600
N          -2.93959997079825   -4.83843535069213   -2.08860230591707
C          -4.48905312027169   -1.94238215300128   -1.94765915655223
N          -5.33191078441617   -1.57129083469106   -2.63502742066366
C          -1.66336670637961   -2.45579236013970    0.58637394447172
C          -1.19555311056329   -1.49289061117805    1.51144854514087
C          -0.12428694613540   -1.71709767576046    2.34139726973442
C           0.52208836741475   -2.95397634868912    2.25156705144222
C           0.04627910095208   -3.91338687467520    1.32619648417928
C          -1.03909705593734   -3.68688319449869    0.48973888780439
S           0.98802124410750   -5.37365395719950    1.37973530544530
C           1.99475897066075   -4.68266848539695    2.62444278761866
C           1.64560697964643   -3.42499390810866    2.98466560802827
Br          3.41302296790394   -5.68695487384444    3.33105216040419
C          -2.02340450469745   -0.27258567644447    1.42275471914452
O          -1.89044592814287    0.71533681508660    2.11241509111749
C          -3.05384941274085   -0.56184315047611    0.39342616480313
C          -4.16283078222523    0.17312470362837    0.09172628018587
C          -4.51750567978893    1.52084100351134    0.42166842728098
C          -5.88628502443009    1.85949222887030    0.36323343875982
C          -6.28338184632284    3.13861778628605    0.64757436143574
C          -5.33104356151057    4.12432700400753    0.97213491645105
C          -3.97774395743982    3.81474530389617    0.99100320028613
C          -3.58012323636554    2.52340073658365    0.71754802008514
C          -6.02281680498247    5.36841776169795    1.21508391416465
C          -7.40051024331493    5.16172106921157    1.02695856175689
C          -7.67756499520556    3.72190116668060    0.66196247930200
C          -8.35165819989811    3.60652286706438   -0.71760743354514
C          -7.53771453312837    4.25652108776162   -1.82997311532253
C          -8.55676289294469    3.03698147428352    1.72574975156445
C          -7.96329490944012    3.11890158539454    3.12715718698533
C          -8.28740811966603    6.19986880921985    1.17934416768210
C          -7.81821246988393    7.46601424656542    1.55641714458740
C          -6.44255908653943    7.65338983577326    1.74103199396353
C          -5.54348323353688    6.62157593292716    1.56912582258585
C          -8.76811703863915    8.54935611161517    1.72940964975125
C          -8.54943491599513    9.64321234777982    2.47187950364758
C          -9.49065699183301   10.73021739820480    2.69166387594286
C          -9.06451005026872   12.03640547612533    2.97513390335701
N          -7.78669034251901   12.56952564597291    2.94142816641733
C          -6.78886836430709   12.09572106321144    2.00127874998921
C          -6.45466867276512   13.13588299958134    0.93399438361281
C          -7.84964016407967   13.85586354643609    3.45558505966697
C          -9.19775245547970   14.17941258967996    3.73399571471136
C          -9.97730797904790   13.01520735523228    3.42138848784920
C         -11.33575407348025   12.74233488636355    3.49109680532238
C         -11.76946231013464   11.48236167381052    3.12524638138300
C         -10.86470294237187   10.49846080933094    2.75195726546279
C          -9.55500276426947   15.42798551559385    4.22027208737477
C          -8.55188550447727   16.35339161643121    4.44471243812331
C          -7.22443761535990   16.02224327971915    4.23795029732797
C          -6.81786905805560   14.76453894509018    3.77022616473990
C          -5.42821997498573   14.40099562511398    3.71388521102706
C          -4.35632239155440   15.23125406379503    3.81450462885253
C          -3.03050099058057   14.76086227930666    3.78866433842802
C          -1.91390440717039   15.54653668095093    3.91572996759003
C          -0.56554167352808   15.11485939112976    3.88734515651813
C           0.34738356172506   16.11092457612158    4.05723209326605
C          -0.22357763077339   17.38965851969911    4.23464815340101
S          -1.97120404098632   17.28649213107292    4.16501149787449
C           0.43596132123245   18.58425008780517    4.45154426122604
C           1.82993185268998   18.79840895005767    4.52851667111801
C           2.17635645023846   20.09194501401281    4.77037247723245
C           1.08245502703752   20.98527255365485    4.90310483237800
S          -0.41857263904040   20.09120380847287    4.69234712991075
C           1.19506927058719   22.32523731577757    5.16684667358271
C           0.18574701344577   23.29696573781273    5.33412782919264
C           0.43724351584473   24.64159404752828    5.63725215019158
C          -0.79486476223329   25.32658924884155    5.74280250902701
C          -1.09701612710684   26.64228444780794    6.02765957746996
C          -2.44940918132966   27.00817061162824    6.06026891298336
C          -3.07466737361213   28.22436735268175    6.31321355873539
C          -4.48742014530127   28.05431726070465    6.21953485127111
C          -4.73978236043230   26.72698854044232    5.90807991432008
C          -3.49555721319300   26.03671028173807    5.80011752112129
C          -3.20027833983576   24.72718440707513    5.51770646342890
C          -1.84200149501713   24.35455638557000    5.48773394173750
C          -1.23581427936528   23.13391930385754    5.24330308337784
C          -5.43457981139484   29.12438209702832    6.42595663696022
C          -6.75757924958232   29.01400151701195    6.34130432651054
H           0.20596106518973   -0.95996344628783    3.03537739525438
H          -1.36452241537774   -4.45278123994394   -0.19390524693801
H           2.15760518727827   -2.85130484054811    3.73558922871823
H          -4.92825565757889   -0.34110905015949   -0.47900633963071
H          -6.60856746035329    1.09714212930396    0.10744219108188
H          -3.24299160926971    4.57410466304831    1.21169791215506
H          -2.53062956223819    2.28615759681363    0.71074332201440
H          -9.33543926670727    4.07785025236407   -0.66516059065023
H          -8.50004205475753    2.54970668012497   -0.94813644308080
H          -7.39099438101070    5.31599635626502   -1.63058599117535
H          -8.05567180252577    4.15300825620643   -2.78052021774587
H          -6.56129263573085    3.78532261410502   -1.91835954890244
H          -8.68762083757048    1.98906613473040    1.44782616340393
H          -9.54158012530216    3.50890892869299    1.72160023047137
H          -6.98878765681336    2.63657731504632    3.16231041369649
H          -8.61826881273903    2.62281321725090    3.83977083260994
H          -7.84355261313291    4.15564799471159    3.43422873715110
H          -9.34750464137275    6.05065153661277    1.02993881106053
H          -6.07214503175146    8.63365722752021    2.00045491687831
H          -4.48534007454446    6.78795295848760    1.70591656615210
H          -9.71222879304536    8.43232915018696    1.21325653980084
H          -7.62012946979600    9.72922726265064    3.02008158010577
H          -7.21115656587117   11.22262016721150    1.49944544450679
H          -5.87922574644379   11.77615031166058    2.52132703825382
H          -7.36652150621732   13.46760324308325    0.44210729519066
H          -5.79997479276037   12.68997293745100    0.18931644388555
H          -5.95515063319693   14.00196313014079    1.35938162191079
H         -12.03092623424435   13.49478169668921    3.83012672218911
H         -12.82172962104707   11.24312868713313    3.16400854903013
H         -11.22857009021793    9.50231031139640    2.55023513005818
H         -10.58859219605547   15.66240658476469    4.42266605562895
H          -8.79946769588845   17.33639282607888    4.81668250845970
H          -6.46753729268639   16.74941480840307    4.48568058765467
H          -5.21439883831472   13.34570324658479    3.62867173603105
H          -4.48673255233649   16.30078368229384    3.90422074890017
H          -2.86873706564410   13.69725251901152    3.66446336146404
H          -0.31512251213016   14.07840836170497    3.74307050064234
H           1.41199812143111   15.95948256900561    4.06472807146007
H           2.53559110951371   17.99661417686504    4.40500518101542
H           3.19046391870360   20.44007938478583    4.86260718092297
H           2.21035207651986   22.69100317512367    5.27146887932403
H           1.40914224783896   25.08054714561262    5.77089112533317
H          -0.32224314380787   27.37097028578779    6.22152479407033
H          -2.58279418428582   29.15304352137699    6.54395299311173
H          -5.70311499006783   26.27351450394175    5.76767273954183
H          -3.97286389733927   23.99623459702864    5.32406040034089
H          -1.74557827262652   22.21540498158293    5.02029647864640
H          -4.99438989574326   30.08404585272055    6.66876719366244
H          -7.23927499773645   28.08138122967089    6.10266894396390
H          -7.40572327758200   29.85671838517291    6.50854933195576
