113
 SCF done       -210.375606826663          0.000225849777
C          -5.80121941121323   -0.90170703598201   -0.53905168690010
C          -5.69462677781476   -2.02884245936925    0.23531242206463
C          -5.58738717169598   -3.33585533074298   -0.28264283261802
N          -5.50403811152822   -4.42464813745962   -0.63924409609528
C          -5.67860405336062   -2.06340005422247    1.64448753776599
N          -5.64842976416511   -2.18472299705226    2.78695996115043
C          -5.76923804641685   -0.88344880812983   -1.99563110157002
C          -5.92284117247152    0.45156045496034   -2.43710308463358
C          -5.92515964801002    0.79955051421219   -3.76561184731234
C          -5.74564452928973   -0.21806442077314   -4.70680882914464
C          -5.61090234980396   -1.55284795075114   -4.25745099050779
C          -5.62500252373455   -1.90676380558081   -2.91517441390660
S          -5.40571494119427   -2.65526357093410   -5.58482663095232
C          -5.46003897061335   -1.32094599453191   -6.70400716553476
C          -5.65504303543367   -0.11497019410359   -6.12130614557246
Br         -5.21640324348203   -1.64194195392229   -8.53238102510633
C          -6.08541927639670    1.34427731236830   -1.27145259468963
O          -6.36471697067449    2.52240048399254   -1.32578582891622
C          -5.95840171213295    0.46871343673828   -0.07784657068928
C          -6.13256931282918    0.85101602862853    1.21692104840817
C          -6.19807049889424    2.20802669220089    1.68621065496924
C          -5.33955456975006    3.17998851022085    1.13662771548111
C          -5.38035983563689    4.49827962665452    1.52085577417142
C          -6.33581439337412    4.93489570749195    2.43777716320315
C          -7.17967753875640    4.00465608031922    2.99423652029552
C          -7.08330737789376    2.63609672257918    2.68648825181261
N          -8.00734931505693    1.93311699169927    3.43624661517669
C          -8.26777051016409    0.51969509244691    3.42387524393270
C          -8.77941867745471    2.77522307910113    4.20473712758209
O          -9.61993592743418    2.41837497255695    4.99069155265705
C          -8.38088768032084    4.20517746245704    3.86338278414701
C          -9.52495164726461    4.82162578718274    3.00807095198645
C          -9.65686861824334    3.95680801897170    1.74824672789091
O         -10.03095811848694    2.80752649239598    1.68539612329324
N          -9.22251553420766    4.69456521974080    0.68940506011822
C          -9.09270489279220    4.16593670669602   -0.64171484091176
C          -8.90135667453564    5.98691624718609    1.07056535666972
C          -8.43578537632801    7.01468394641717    0.28535943920162
C          -8.21804197980300    8.26802715286337    0.88023952962704
C          -8.50546497523349    8.43579381268490    2.24164925462913
C          -8.94343531155348    7.38237358688180    3.03020173439652
C          -9.13658577379940    6.14957860798529    2.44413872919906
C          -7.72070550994701    9.37962059548008    0.10784622722752
C          -7.07951033127925    9.24938901404983   -1.08118334873125
C          -6.64722072123806   10.30536389768162   -1.90508509066525
C          -6.01153561070293   10.08494683984755   -3.10313628278266
C          -5.61680553944721   11.03269515233364   -4.07737036191499
C          -5.05293470302967   10.48551453130662   -5.19346448143718
C          -4.94826892581985    9.08003637880619   -5.14719667128346
S          -5.60071586787258    8.46563980686587   -3.65245407982073
C          -4.41870648958204    8.21115008181027   -6.09137207547267
C          -3.95612982206064    8.48627812381205   -7.39098165251973
C          -3.52319711762276    7.37677722775003   -8.06123943466317
C          -3.59219595445559    6.18064520100921   -7.31217009598015
S          -4.26081741087273    6.50938428343962   -5.73087172713525
C          -3.20169950437537    4.93682688945667   -7.77270713636938
C          -3.10797342703103    3.74115827082373   -7.06369873598767
S          -2.68308893862322    2.25090120610594   -7.90571396857717
C          -2.62490935600944    1.25148988049864   -6.45052297906731
C          -2.93456782171950    2.07726861708555   -5.34434387013843
C          -3.21351045489706    3.42239976760076   -5.70958779207351
O          -3.48224423283433    4.17152859989909   -4.62377597527793
C          -3.37407348656961    3.33017195655458   -3.56357810755238
N          -3.56412670842845    3.82640443058628   -2.26708442967418
O          -3.39144536686374    3.02299175201880   -1.35892785714625
O          -3.86259550697924    4.99385275411748   -2.11796779216979
C          -3.04108685696490    2.04939949895056   -3.93855623945443
C          -2.33544287812678   -0.09081414801386   -6.63038614858847
C          -2.24281946898893   -1.13095383305463   -5.72024746788743
C          -2.05456277000610   -2.48590927264083   -6.06779359559771
C          -2.06145432435716   -3.35202783315733   -5.01018978293289
C          -2.23576010002971   -2.72029709855498   -3.76333333177705
S          -2.37590454353453   -0.98887256204014   -3.98356855814109
C          -2.30787776172796   -3.27046340541997   -2.49887016222563
C          -2.26077154648935   -4.64037942563316   -2.13523488181734
C          -2.35252646050339   -4.86563129522974   -0.80339797647826
C          -2.47246699908801   -3.67994067279024   -0.00821511468137
S          -2.48057157569475   -2.26521477380218   -1.07647999843232
C          -2.57008192860225   -3.58447878210208    1.32522846486297
H          -6.06168603808352    1.82530655428382   -4.07059665840181
H          -5.51886282246295   -2.93923118387734   -2.62782613941385
H          -5.71999839393604    0.81020235180207   -6.66438010259913
H          -6.22597340149444    0.07465225793106    1.96060461727008
H          -4.60108453279524    2.86280122708997    0.41866716791944
H          -4.68902498093380    5.20145668585907    1.08514917895565
H          -6.40753856288824    5.97776967195977    2.70527105980806
H          -7.42673035606532   -0.04964060298521    3.82440927178233
H          -8.49940021307226    0.18860721252925    2.41003888950734
H          -9.13981769764341    0.35835070115867    4.05822712750637
H          -8.21934802834524    4.81308463807677    4.75441914775982
H         -10.44554045989990    4.82127930687979    3.59541671582350
H          -9.57356829071174    3.18840605211514   -0.65186023188825
H          -8.04042421864941    4.04648414266367   -0.90835835618226
H          -9.58535805953353    4.82223877801225   -1.36001208708661
H          -8.25860973167893    6.86304251065408   -0.76567848782657
H          -8.35408800996841    9.40637100530243    2.69037298979190
H          -9.13084664763544    7.52895680195518    4.08340045549388
H          -7.86260714972796   10.36690374657713    0.52838807822542
H          -6.86887714932435    8.25598880616785   -1.45514769532855
H          -6.84925346573098   11.32620294817773   -1.61021652728214
H          -5.77151411291279   12.08707225586996   -3.92945090842982
H          -4.70115255116299   11.05440264890264   -6.03568448960972
H          -3.96399260873785    9.47867881878021   -7.80472288541544
H          -3.14219869920524    7.38608787278983   -9.06729255437480
H          -2.91617758613881    4.88341348667276   -8.81535145238139
H          -2.89363389714818    1.24626917085541   -3.25092214331823
H          -2.18138610709961   -0.38310239578789   -7.66290744462523
H          -1.94054832418224   -2.78712807927012   -7.09444659020659
H          -1.94903311536933   -4.41697303036955   -5.10057956582435
H          -2.16753882158122   -5.41251041422752   -2.87788939389257
H          -2.34530971438073   -5.83553227173580   -0.34059769189083
H          -2.56836309912859   -4.46821272590565    1.93781160886038
H          -2.65865088132175   -2.63688263625885    1.82496401326868
