71
 SCF done       -147.653094286623          0.000997255264
C          -9.42635722343244   -2.66120809751520   -1.46309081685615
C          -8.94859080265492   -2.72560826427203   -2.74509868697681
C          -9.16582423683708   -3.81610181395142   -3.61430577124280
N          -9.31351620519324   -4.67087713451351   -4.36533939283397
C          -8.14864118219832   -1.74297343302176   -3.36780991649578
N          -7.47883736164278   -1.00312440869070   -3.93474127535107
C         -10.16872513747426   -3.71277334961416   -0.78010365636328
C         -10.36075178193497   -3.33092805219692    0.57049009023564
C         -11.03112421028480   -4.11879537972985    1.47492847619982
C         -11.53470630109672   -5.34399601280686    1.02669825380844
C         -11.33889228942093   -5.71732855668908   -0.32518407402284
C         -10.66237880352302   -4.92009480331077   -1.23979293308006
S         -12.04679355811663   -7.26554527169217   -0.66946656827385
C         -12.58953022575406   -7.38953217723689    0.98303664656425
C         -12.25775943707172   -6.32715690574919    1.75520408417692
Br        -13.54175933487231   -8.90817698206276    1.53288111614419
C          -9.76283935229477   -2.00182069674388    0.79893495787552
O          -9.79411086972141   -1.36718340629342    1.83130976284558
C          -9.21338509897694   -1.58131605827549   -0.51249324217312
C          -8.74884918483665   -0.33687506393727   -0.81954039031158
C          -8.40579602864866    0.71104070572389    0.06676025842904
S          -8.28491497329767    2.34338630877872   -0.63236805563270
C          -7.73235882328679    3.09217583070608    0.86705408693714
C          -7.64618203070372    2.08908735672998    1.81047437157627
C          -8.01893372525110    0.79577815007954    1.37387810619125
C          -7.70282986999864    0.29382732225129    2.76357527384620
N          -7.46475643056395    1.70474407390849    3.12146306975028
C          -7.56421753993343    4.49415917041623    0.95621147804314
S          -8.37365980307449    5.53635244922856   -0.16543809959844
C          -7.84209903988258    6.91971869680331    0.72866779465547
N          -8.22499149691819    8.19451198891140    0.28821953033461
O          -7.85990797341253    9.15102070697293    0.94577485838499
O          -8.90797837232596    8.24655387437102   -0.71846143201256
C          -7.07688367976959    6.59966006395742    1.81968487038900
C          -6.89705424663534    5.21362059321104    1.95659909480368
C          -6.05737462147834    4.65344392435255    2.98824961122665
S          -4.81791221231318    3.50894551311676    2.59193587379836
C          -4.18453677549569    3.64496842069788    4.20003169725563
N          -3.07729358472142    2.85151562201256    4.54405100733873
O          -2.60999212397818    2.98671400443162    5.65726384088539
O          -2.67646020506181    2.07496912419437    3.69583491932627
C          -4.88527415032110    4.51674010103907    4.98889317889808
C          -5.98709166718178    5.08456634076348    4.31369991227556
C          -6.93876632272639    5.94972936498653    4.96192002313954
C          -8.28272632655852    5.94368754174757    4.76543258180866
C          -9.23167737139662    6.81976115290208    5.37817797563476
C         -10.51930651064113    6.58765745831029    5.02996850866155
C         -10.68974447575501    5.50533681129586    4.12521921908564
S          -9.13541893122773    4.77731071658281    3.75852534100826
C         -11.83553288756161    5.03867366052423    3.53852048606620
C         -13.16778810702368    5.51745510572106    3.71335387817014
C         -14.09193056272587    4.85819824345161    2.98496790581775
C         -13.56437957537395    3.79673766795813    2.17192742818468
S         -11.80972467034924    3.70478483725595    2.40157761365609
C         -14.23949520064523    2.97785705387898    1.35680044711799
H         -11.16398524304444   -3.79891071125204    2.49650474294940
H         -10.54552866471679   -5.24581884525746   -2.25971243398382
H         -12.51266367306591   -6.23925686186790    2.79547184044299
H          -8.63045511567361   -0.08291514432547   -1.86580333149576
H          -6.82190678875515   -0.34566081458064    2.82048746766189
H          -8.54189706275789   -0.15370733685856    3.29210640651612
H          -6.76849688210658    2.04292186050467    3.76430754942931
H          -6.65208029568123    7.33772492647268    2.47553077839227
H          -4.63202334615540    4.71098956030456    6.01547647411401
H          -6.54414514667025    6.60994327445986    5.72187238251140
H          -8.91019689850283    7.60195461454984    6.04263574924231
H         -11.35605715313419    7.16153084438105    5.38584832925287
H         -13.38336929288664    6.33720290950424    4.37529051455751
H         -15.14510235834938    5.07658697208771    2.98172458408088
H         -15.30582153085023    3.06915531685302    1.24631275768770
H         -13.74483763439371    2.21239534549468    0.78760286858879
