92
 SCF done       -177.251464910975          0.000643240190
C         -12.50273868794110  -10.76460252697549   -4.10498067171327
C         -11.45577241300173  -10.64204269907527   -3.21004167504424
C         -10.18949447750015  -11.22345043192593   -3.38729538507166
N          -9.13407698495521  -11.67800333658707   -3.45175763823033
C         -11.46070324206846   -9.90621790130332   -2.01302647746655
N         -11.32529041104068   -9.29156891790192   -1.04824014446882
C         -12.40004401257501  -11.40705894290796   -5.41242241297258
C         -13.65936320303413  -11.33365740216303   -6.05428430120563
C         -13.86917322389584  -11.81760905675937   -7.32047117813495
C         -12.78134588170678  -12.39432302901879   -7.98932279078288
C         -11.52834095517234  -12.45199316854208   -7.34120103685198
C         -11.31530013085889  -11.96767692898567   -6.05627275206264
S         -10.31774240566405  -13.18490381800964   -8.35160832217884
C         -11.50015749440911  -13.40307779847062   -9.61506153606817
C         -12.73548132715189  -12.95133974671148   -9.29836646056275
Br        -10.98127709860716  -14.20637939634202  -11.23043967089960
C         -14.61778138709021  -10.64046715328762   -5.15854618585145
O         -15.79607597317857  -10.44165824788720   -5.37302713230583
C         -13.83754149505510  -10.26787707647214   -3.96625571147518
C         -14.30025927759591   -9.49825193016502   -2.91267929929846
C         -15.53756204410876   -8.89065857868012   -2.77932375837311
C         -15.76537603275392   -8.00059884126298   -1.73359186913297
C         -16.86400486656198   -7.15507835736614   -1.49296300259675
C         -16.67535707676174   -6.26618710555818   -0.46081358554966
C         -15.41708819697253   -6.37616844224109    0.14576359271186
S         -14.52196595575177   -7.70367690848112   -0.54692098913275
C         -14.72208368897851   -5.56501025296760    1.04461902206111
C         -15.08630056906707   -4.46254640462186    1.83573214312261
C         -14.02674031302674   -3.88548859905688    2.49022528224974
C         -12.77620475578559   -4.47469866142268    2.20423911360487
S         -13.01292972208809   -5.85547981089798    1.15798102166121
C         -11.51058402776295   -4.10565159704604    2.62717271791882
C         -10.33589329188400   -4.61540493740965    2.06131201765996
S         -10.37762039956238   -5.35582274600337    0.41269492930618
C          -8.68518442725344   -5.81721939274887    0.43290678103374
C          -8.14445981750787   -5.32509766524744    1.61021415834154
C          -9.02914265768460   -4.66457559312913    2.47856901865214
C          -7.87343635996830   -4.51347012125067    3.45089491725924
N          -7.02882186424364   -5.10566205033435    2.39388280607805
C          -8.17840169525563   -6.63256665147667   -0.59448103414745
C          -9.01128246141814   -6.96096037712756   -1.68722140687663
C          -8.62159706908396   -7.87597105306858   -2.73241152556526
N          -9.49381316280959   -8.11561710590115   -3.71918395624360
C         -10.67724498458794   -7.54312870855115   -3.71100360962081
C         -11.06553328926473   -6.65266175346284   -2.66528977813131
N         -10.20925293212161   -6.37946933511387   -1.70638380322966
C         -12.33995236597005   -6.04504397918354   -2.67002956462810
N         -13.38312152551386   -5.57082527424574   -2.71876788997771
C         -11.55816571689493   -7.82840154543248   -4.78094269363610
N         -12.27699118525258   -8.06498262555525   -5.64264765534092
C          -7.35643552404969   -8.52114333813302   -2.72445720129723
C          -6.50988729310710   -8.16667567146699   -1.63631180622798
C          -6.90502168820451   -7.24257858426783   -0.59409226876585
N          -5.96044192434013   -7.07709621970800    0.32678016501920
S          -4.68222452149690   -7.97627185119913   -0.07764996872215
N          -5.27455018110052   -8.61900864454775   -1.42479061329100
C          -6.96611118711315   -9.48630737982981   -3.70111992086990
C          -5.83836499837559  -10.31558745220181   -3.63836801090741
C          -5.83814535456679  -11.17969521195636   -4.75698493053846
C          -4.97862821948457  -12.18790482881520   -5.14114611778544
C          -5.28211442890305  -12.88762605434206   -6.31585611570764
C          -4.63361596439816  -13.93667106223794   -6.95987001899469
C          -5.36858777709577  -14.28974422646825   -8.12822843880102
C          -6.47759922893395  -13.45563720184261   -8.20794923721286
C          -6.46260260198393  -12.56276315740897   -7.10180123153130
C          -7.31454864742388  -11.55306598470221   -6.72624053732296
C          -7.01129238084137  -10.85233821849506   -5.54708091872245
C          -7.67973668166103   -9.82738234056257   -4.89909309376614
C          -5.04503146233490  -15.32372861963040   -9.08032904584612
C          -3.97659453215707  -16.11556291607357   -9.02856719205890
H         -14.83763208866796  -11.74495670993955   -7.78997255604419
H         -10.33859574749312  -12.03322692691066   -5.60620651612574
H         -13.58184381481957  -13.00529567017089   -9.95861199182696
H         -13.59125051455278   -9.30192914406757   -2.11634634533227
H         -16.30335818714112   -9.04886764159247   -3.52355449626821
H         -17.74601861772825   -7.18765265258184   -2.10773395803937
H         -17.39068611337209   -5.51750543847480   -0.16904779193733
H         -16.10348695543918   -4.12158475626802    1.91538800339393
H         -14.11227011630170   -3.02577950565167    3.13203069834554
H         -11.42489398114318   -3.38473685107474    3.43045506275447
H          -7.95726604397803   -5.11603082488053    4.35590418596913
H          -7.58356393709417   -3.49218948233730    3.69793015160286
H          -6.27129893261616   -5.75832879128375    2.51648823579167
H          -5.10714283776914  -10.30980752831603   -2.85369500343777
H          -4.10248043443956  -12.43656137030986   -4.55901621140998
H          -3.72579194589176  -14.40640897045404   -6.62873109817022
H          -7.22830796597203  -13.47655128677858   -8.97658258471956
H          -8.19251239647721  -11.30435175944324   -7.30586774524661
H          -8.57585381787256   -9.34730995331049   -5.24021632309570
H          -5.75369699554914  -15.43384866738185   -9.89169482612829
H          -3.24502913992083  -16.04366140215806   -8.24210361045804
H          -3.79782227235280  -16.86866171053054   -9.77628939286602
