80
 SCF done       -158.190828782707          0.000964354631
C          -4.43745438135825   -1.37007565543711   -3.16753978532941
C          -3.19918712130492   -1.82335645660265   -2.80400064136532
C          -2.65490425508656   -3.05960827035522   -3.21371585592581
N          -2.15569832814979   -4.04457567915286   -3.52549023515413
C          -2.30827535265537   -1.12718478604378   -1.95897378781812
N          -1.54072261990165   -0.62765063132735   -1.26725137672544
C          -5.41000276165882   -2.07542444381017   -3.98630758183627
C          -6.59440664667865   -1.29813792068209   -4.06801457776509
C          -7.66551128005011   -1.66727262797713   -4.84563942815959
C          -7.58206165522960   -2.87485464750084   -5.54739310932528
C          -6.42043660129527   -3.67625343527595   -5.40913105327343
C          -5.32561798328244   -3.28820302069846   -4.64756582173696
S          -6.54921256153997   -5.14853093713848   -6.31218387769140
C          -8.12463247022380   -4.67768800241546   -6.86710877278026
C          -8.54157243034722   -3.47338355162408   -6.40537754894723
Br         -9.07724354802266   -5.80268822245756   -8.01352166272848
C          -6.45196832380038   -0.08796473836778   -3.24237789084952
O          -7.28969472086058    0.76467321305059   -3.04534256545520
C          -5.04037072389248   -0.10772108197797   -2.75919175022868
C          -4.43406500370952    0.95970822620055   -2.20034437612271
C          -5.16917290597750    2.11335950020161   -1.72011983923125
N          -4.85594619879632    3.32770205030870   -2.11954436381614
N          -5.46709880800591    4.39666615849135   -1.69415148096531
C          -6.47651667888104    4.36853091857255   -0.84274305582481
C          -6.89923941183296    3.10931713223905   -0.32545236174666
C          -6.20699867905640    1.94081383224791   -0.76622195403961
N          -6.62966615664311    0.83731690475806   -0.15360823332767
S          -7.81022772369361    1.24291457388213    0.85607292390440
N          -7.83191087450111    2.82623124017510    0.58220227299150
C          -7.14769725884542    5.56781233776945   -0.41300434626168
C          -6.90410871127051    6.82000327564572   -0.83288306909995
C          -5.84691350149654    7.16263635505777   -1.82402677228879
C          -7.71264603561624    7.99338409770019   -0.31906503320217
N          -8.84580107613410    7.63547845770664    0.49640094601994
C          -8.69505722775261    7.33534769528544    1.81454232916452
C          -9.40385148548106    6.37204001160291    2.45217840490917
C          -9.22742190656955    6.00259187577463    3.80229902574142
C          -9.56763180588088    4.76066711440416    4.26530984263530
C          -9.31617311554356    4.18957202451994    5.53807190520224
C          -9.53248959449717    2.84686172022080    5.60261678882748
C          -9.96792447832356    2.27908178993972    4.38123150977707
S         -10.21186733964128    3.52440089795196    3.18338192278596
C         -10.05441405397713    0.95086352381857    4.01895635231828
C          -9.67072156502794   -0.20435593908000    4.73401898593365
C          -9.60386737205666   -1.32885966153155    3.96890407819225
C          -9.93265890893435   -1.12724476350049    2.60226071531341
S         -10.47222150885940    0.52595373432410    2.36386408226089
C          -9.77516139295318   -2.02125769427361    1.57822080971949
C         -10.00565114973655   -1.77623567709819    0.21154449285378
S         -10.69711634461031   -0.29733377516345   -0.44361946653091
C         -10.64820380241575   -0.83980757542387   -2.07324705605937
C         -10.11192779480236   -2.10324314964573   -2.14165444649431
C          -9.74396458638028   -2.61435079798114   -0.85840358377209
O          -9.18301743827456   -3.83989986801340   -0.96864678310065
C          -9.19385098212816   -4.11616305616229   -2.30084188285672
N          -8.60657231270167   -5.31519788838133   -2.74044183408732
O          -8.54377424214398   -5.46820049184059   -3.95350645385840
O          -8.18733586802029   -6.09946107845681   -1.91713871926589
C          -9.75553818688527   -3.12240087901155   -3.06136124615072
H          -8.53856201997977   -1.03669641852683   -4.91136503776898
H          -4.45277866138313   -3.91741594120352   -4.59326744209615
H          -9.48747059125464   -3.03081974433962   -6.66186082671145
H          -3.35961021144709    0.99878071062494   -2.08258593565439
H          -7.91608697291634    5.36781844774364    0.31990139616501
H          -5.93153972639834    6.52247496259523   -2.70044576805602
H          -4.86399446346249    6.95809570591018   -1.40193621938571
H          -5.90141874065222    8.20806440840835   -2.11824781632969
H          -8.07433664210061    8.56926510950171   -1.17864581948452
H          -7.05549966870157    8.64775738409832    0.26399383913585
H          -9.52378091002536    7.05824916905205    0.01300328775967
H          -7.95000556628594    7.91986045369629    2.33737050178778
H         -10.07637302751827    5.75534194742372    1.86803217803508
H          -8.71577745935224    6.68001378920820    4.47207619989080
H          -8.94855126051345    4.78589325167490    6.35491251531209
H          -9.36343079888271    2.24469628096125    6.47739594325331
H          -9.41541230693014   -0.16652749570724    5.77804717327067
H          -9.28988331858889   -2.29266682696649    4.32818992311479
H          -9.40444658299211   -3.00883458032118    1.81705392812489
H         -10.99392355145453   -0.20230287433225   -2.85913046988342
H          -9.90043026572864   -3.15347999700762   -4.11966525797618
