100
 SCF done       -188.767219393669          0.000726619640
C         -18.52749073903445   -8.76178799327356    6.18548109056994
C         -17.49068829934557   -9.42885194627720    5.57264691899833
C         -17.27627568972148  -10.81728181461355    5.67158628421506
N         -17.04365354854148  -11.94210356936008    5.70758775804963
C         -16.50042796060396   -8.84682415040244    4.75743132457379
N         -15.65348514265628   -8.46342968383140    4.08107094157546
C         -19.54820042038736   -9.38944877726219    7.02358196278777
C         -20.45710605374918   -8.39268573916841    7.45347388008332
C         -21.53140892312923   -8.66788364808505    8.26211679812852
C         -21.71918985503219   -9.99357146442482    8.66987542243022
C         -20.80620559497436  -10.98183282007945    8.23657066573518
C         -19.71892309094494  -10.70270781838036    7.41646968549989
S         -21.22063473754782  -12.55175887631352    8.85801279907159
C         -22.59658749970200  -11.86589026723758    9.68017858343687
C         -22.74061392808082  -10.53203043821488    9.50031679946499
Br        -23.71385380680199  -12.97688278756976   10.69935739157418
C         -20.04116212507192   -7.08489450749905    6.90118754993379
O         -20.60647394355370   -6.02161342126166    7.07267905386421
C         -18.81910246618493   -7.35369371867839    6.12196447563718
C         -18.08052458303990   -6.39036207924830    5.46312870849852
C         -18.38534807705851   -5.03479968884358    5.41644769610282
C         -17.58633048535732   -4.11431359779431    4.76429512281878
C         -17.80223784361475   -2.72036693768004    4.66855430262920
C         -16.83252354037995   -2.05083335789938    3.98113180321020
C         -15.80249324456787   -2.88591398178123    3.49862940554322
S         -16.11023938954807   -4.55280768198705    3.93778622316143
C         -14.66717669401634   -2.53245163966598    2.79346461827824
C         -14.24556879931930   -1.23931098236486    2.39991535598077
C         -13.05600114965159   -1.22835011496851    1.74521710362582
C         -12.45945872214023   -2.51127324897476    1.57143372502786
S         -13.51284833702772   -3.73249346620772    2.27856492221394
C         -11.23727607217077   -2.72501729371322    1.00316404068994
C         -10.52648580842657   -3.94811079425472    0.78664644556904
C          -9.15039231979905   -3.86681446798595    0.48949146142012
C          -8.42161776054608   -5.01332665855639    0.31260608244207
C          -9.04181278901050   -6.27376119344694    0.38898864791195
C         -10.40239652174809   -6.36991752607660    0.64781220799504
C         -11.12836589673227   -5.21596416982806    0.84976223959119
C          -8.04194433852943   -7.29484962471076    0.16374825902934
C          -6.79817466831878   -6.66948030040256   -0.02603051385447
C          -6.94529848618340   -5.16343951078388    0.01589074470309
C          -6.59980190501831   -4.55011943205871   -1.34573959979256
C          -6.08558314666613   -4.53452173890514    1.11556268093043
C          -5.66427507256743   -7.41884162943124   -0.23480457296442
C          -5.76991013080129   -8.81292542152179   -0.27743207219116
C          -7.01643327863367   -9.42444079116862   -0.13008909054283
C          -8.15339859072068   -8.67654860683177    0.10375493734913
C          -4.58789679793639   -9.62812287113693   -0.50346883517897
S          -4.61405936769627  -10.91436821741750   -1.65743185977151
C          -2.97049957646456  -11.29507894167585   -1.35289120150798
C          -2.42518645050848  -10.49401786971571   -0.39676674165463
N          -1.13176383468377  -10.66534802747574    0.12305282182632
O          -0.44908160756148   -9.46634480364781    0.36655938123836
O          -0.35163182281299  -11.49385954978410   -0.69672514844057
C          -3.35854894230089   -9.53247417708195    0.10566273756724
N          -3.17691485011850   -8.62611600741064    1.17026004133991
O          -2.46286001041297   -9.09893055471396    2.24089197364068
O          -2.52162690595208   -7.41770884283904    0.64201569562267
N          -2.72498787098833   -6.35263742740845    1.48678313494159
C          -1.81377883999030   -6.16905211475796    2.49227445530287
S          -0.21641746467871   -6.78694730251785    2.28704514567916
C           0.24368940157837   -6.03377467998591    3.78157065484773
N           1.55557483793692   -6.20191693016546    4.21790825028851
O           1.88170039383442   -5.67436448873356    5.26734925724155
O           2.29152843786274   -6.87180281479811    3.50870139849261
C          -0.78080539606542   -5.34773907864255    4.37956546695492
C          -1.98060872671973   -5.40823462328657    3.64879676920426
C          -3.23409327527634   -4.78989964965657    4.03468212770308
C          -3.39309017608596   -3.95086659531712    5.05199051965134
H         -22.20622330920624   -7.88566975326905    8.57280642773275
H         -19.05157331154053  -11.49279753277303    7.11601318855645
H         -23.53279987470812   -9.94968326954918    9.93432332642294
H         -17.18341845178635   -6.70332474299989    4.94271473567674
H         -19.27542862525401   -4.67708956993761    5.91311494635775
H         -18.66521340415499   -2.25779585168762    5.11340668250085
H         -16.83330462246171   -0.98882957114007    3.81230405481187
H         -14.82534016111429   -0.36140571902592    2.62096189679571
H         -12.57411920573110   -0.33913813348110    1.37810439152815
H         -10.70831980155101   -1.82644304529606    0.70532572361744
H          -8.68057879390734   -2.89538994451229    0.42676653050342
H         -10.88829109451261   -7.33219647570321    0.69394150902385
H         -12.18736143300156   -5.29460936869937    1.03288176019620
H          -7.22445260765207   -4.98448863891308   -2.12307340627822
H          -5.55775437737718   -4.73931099652876   -1.59153767171654
H          -6.76431783236205   -3.47549646571368   -1.32743790684238
H          -6.27911897923529   -5.02387039157150    2.06844599550872
H          -6.31932770492847   -3.47773129460046    1.21911103130859
H          -5.03057765430139   -4.62555309305079    0.86595061183478
H          -4.70672098476092   -6.95349493626452   -0.40748859780543
H          -7.07886880476370  -10.50111780558778   -0.18491604004470
H          -9.10953319529644   -9.15940375641756    0.23354913756103
H          -2.48964640658669  -12.09232368466645   -1.88049206293424
H          -0.34619300354349   -8.93363938024074   -0.44223196202236
H           0.23208129338484  -11.98860510973188   -0.10319453730613
H          -1.58179940636976   -9.42657152712940    1.96298286699836
H          -3.70722589725388   -6.23699573160556    1.72607071376780
H          -0.65622036043727   -4.83978575853366    5.31769332142548
H          -4.09314656051127   -5.05200442888387    3.43222167337376
H          -2.57699704785382   -3.64343481793728    5.68106073263872
H          -4.35823805932748   -3.53817425742590    5.28701461063841
