102
 SCF done       -197.873034704074          0.000437909493
C          -6.20654875501765  -11.52397381521559   -2.82538171366935
C          -6.20150755644508  -11.07668710439473   -1.52352862525222
C          -5.24594740329072  -11.45756762765463   -0.56703316117994
N          -4.48865632180060  -11.70852937804889    0.26155115515517
C          -7.14765431712298  -10.20419262287276   -0.95013911535448
N          -7.88221706183767   -9.52172329885196   -0.38826172280281
C          -5.28522986223676  -12.51652476399719   -3.37528587430449
C          -5.69222802394138  -12.82548713181989   -4.69555227177868
C          -5.03339275321961  -13.73870840644306   -5.48000703080231
C          -3.91122781586968  -14.37582947251688   -4.93769960038377
C          -3.50767070522226  -14.05591014738368   -3.62133021387854
C          -4.17908292716531  -13.13413494420613   -2.82572807123799
S          -2.09476096882986  -14.95233919783317   -3.15048076367933
C          -2.06827811711580  -15.73532119803897   -4.70807333411753
C          -3.06375717261953  -15.34676125778378   -5.53904712633521
Br         -0.72817329699538  -16.99186196091578   -5.09002229098832
C          -6.87862765719713  -12.01259177153169   -5.04117974093612
O          -7.48885202511153  -12.04910157763180   -6.09237041480726
C          -7.13660435558058  -11.16538272984055   -3.86057980287852
C          -8.06896808562931  -10.14517290469775   -3.81444587845523
C          -8.96362968154792   -9.85701907512798   -4.83717383425564
C          -9.84993432178470   -8.79521459410332   -4.81058374359233
C         -10.79631123563086   -8.48174167866831   -5.81007520047634
C         -11.54437690108000   -7.37212028506922   -5.53863115006172
C         -11.21617334324061   -6.75463198617942   -4.31496059359170
S          -9.93785048767589   -7.63041149768095   -3.50909119231934
C         -11.77721102468286   -5.60695983539113   -3.77003828403394
C         -12.82249846921262   -4.83309632749272   -4.31681608954413
C         -13.15763709165990   -3.75511763518806   -3.54997300031720
C         -12.38829796514518   -3.63413079368794   -2.37276016105012
S         -11.22466263492469   -4.92839122043051   -2.25614828175489
C         -12.49533977095347   -2.65215097634977   -1.40879234671765
C         -11.67273197808381   -2.62884306865723   -0.28946183978769
S         -11.83228610427404   -1.36336562728954    0.96952702934050
C         -10.54454359491299   -2.13141841117551    1.79864594294783
C         -10.09384909344666   -3.26220487971372    1.07870532074134
N         -10.72228163749211   -3.51069550291869   -0.04821816616709
C          -8.96999969783179   -3.93315515963591    1.79960364276225
C          -8.84063235539906   -3.06172147522348    3.01480697181580
C          -9.78586928336524   -2.01595960247452    2.96770500951899
S          -9.69357330502160   -0.98788777133693    4.33462633506059
C          -8.38011537029904   -1.95922691298557    4.99376143018108
C          -8.05585416876150   -3.02575933785569    4.14689596093798
C          -7.84115732055372   -1.59569140475403    6.23362569184654
C          -6.83259507712737   -2.25073039681373    6.89833125246637
C          -6.37390402575924   -1.84547176769064    8.14986063478312
C          -5.37985991228277   -2.47639761057619    8.86939968561502
C          -4.90679209814718   -2.11697571101691   10.14946982867447
C          -3.92183573481281   -2.93022535326498   10.63105638792609
C          -3.56382662498927   -3.96938260938598    9.74793334038669
S          -4.51678974276751   -3.88947651521723    8.28967869607652
C          -2.59238171485462   -4.94136751009587    9.93132243967803
C          -1.73641434628322   -5.13017974706403   11.03374719701084
C          -0.85797363917818   -6.16119136117751   10.87127616158431
C          -0.95157151580827   -6.81940433394742    9.62227195028774
S          -2.24519947004574   -6.11854527724415    8.68646161851799
C          -0.18205516931352   -7.90650140713234    9.24165407980184
C          -0.15006723273499   -8.60237565264947    8.03683742970281
C          -0.58578423936177   -8.29186821001787    6.76119246034953
C          -0.89538144249054   -7.07004959121564    6.08689586299767
C          -0.46841052848737   -5.80313305961193    6.43242383323868
C          -0.84273690720537   -4.62815849488266    5.75766968838671
N          -1.14684046865241   -3.63007058676429    5.27557861208465
C           0.46275301913849   -5.55425426530238    7.45584026042745
N           1.24018486394302   -5.31050057176709    8.26597392401031
C          -1.57530659176566   -7.40764692624038    4.83731896715287
C          -1.51273485730906   -8.81094601119257    4.65371719533999
C          -0.83466006978240   -9.41413551387022    5.82103500453719
O          -0.56026793927924  -10.58149572110136    5.99493643656777
C          -2.01489231005608   -9.43208913866736    3.53751554446240
C          -2.61264992488237   -8.62922702264148    2.55864649711260
C          -2.68674781538026   -7.23252956227835    2.76114607599923
C          -2.17523779308804   -6.60261256988611    3.89048128867774
S          -3.45888117660355   -6.43513740317828    1.42322608229081
C          -3.64894838999002   -7.97126666526444    0.61542763096317
C          -3.17379536256112   -9.02690903495505    1.31317039448906
Br         -4.42946565995968   -8.01649252111123   -1.09002207627652
H          -5.37012825745474  -13.95504382179167   -6.48175302890342
H          -3.82916870494038  -12.92494962971015   -1.82900860575314
H          -3.19674568280858  -15.72724871982125   -6.53534082401382
H          -8.09833516721012   -9.51214799722827   -2.93563726850832
H          -8.97430514598494  -10.49261494434218   -5.71125029447144
H         -10.89578555739182   -9.08430048463952   -6.69520009028582
H         -12.31084669365967   -6.98768927440675   -6.18687080132307
H         -13.30099435999443   -5.08352688711759   -5.24622925016441
H         -13.92951672553556   -3.04694422245653   -3.79438707271680
H         -13.23843940320030   -1.87776155397010   -1.52265672555319
H          -8.05898249236024   -3.94791867272276    1.19839401439108
H          -9.21229083506369   -4.96767721894331    2.04953202194510
H          -7.27687053583079   -3.72936554181664    4.37568749578656
H          -8.27587204859643   -0.72300846626017    6.70465824812965
H          -6.37155919635494   -3.12106891532338    6.45246324167968
H          -6.83064745983811   -0.97691444757051    8.60721810730860
H          -5.30693774166189   -1.26986189319742   10.67820391685035
H          -3.44540534357070   -2.80537938373474   11.58634096965172
H          -1.78171668390976   -4.50538881853240   11.90711090505872
H          -0.12070575437351   -6.45093549165450   11.59818295513480
H           0.43316165079056   -8.31374695045424   10.03503702434966
H           0.24386728588131   -9.61365167620759    8.10363905520058
H          -1.94597991233702  -10.50115586584688    3.41281650186037
H          -2.25288834085145   -5.53382263408986    4.00147807742454
H          -3.22822497539885  -10.04759199347244    0.97663318822785
