97
 SCF done       -199.731609766053          0.000804134232
C          -5.60618219621851    3.72930298413525    1.71098305769074
C          -5.27829859707158    2.92192923338579    2.76696781498308
C          -3.98077753636022    2.81653426236967    3.31034325369269
N          -2.95046542017596    2.70586070223784    3.80298194821393
C          -6.20863538813762    2.12063757079560    3.45987008780622
N          -6.94141322408550    1.45885739551094    4.04541312955286
C          -4.68653699860980    4.57899853090426    0.96331012058355
C          -5.42451404639433    5.33646942956341    0.01646932526364
C          -4.82821267377752    6.22146665323253   -0.85107215786595
C          -3.43686208802110    6.34520275358999   -0.80527798877975
C          -2.70674410659654    5.56070415007343    0.12120747786123
C          -3.31072416479356    4.68585458644261    1.01621526509596
S          -1.00111910447375    5.82932976147850   -0.02575005884898
C          -1.28360923823423    6.98000415421110   -1.30219073819273
C          -2.59160452516950    7.15785247062529   -1.60644330469399
Br          0.16545397856533    7.84276782685102   -2.10636681063052
C          -6.83129580273614    4.93870236349670    0.08458560656591
O          -7.75384050536201    5.34658821973326   -0.61821315607997
C          -6.91992881477892    3.91121419781720    1.12923508031692
C          -8.08611044594773    3.23488358984143    1.37924345902230
N          -9.17201870077855    3.48487510117342    0.63520648072674
C         -10.38560110211503    2.87986133358025    0.68446119841986
S         -10.96674641595245    2.08075439229007    2.10764864251431
C         -12.49531771745747    1.84011298080094    1.32091332110249
N         -13.49615830462509    1.16116928259822    2.03457530668133
O         -14.56909314839379    1.00372774118397    1.48673062792191
O         -13.20623439877120    0.78542911945971    3.15503670495712
C         -12.55012978152480    2.34740530323392    0.05076907044098
C         -11.33266297849131    2.92834189243993   -0.34995963417552
C         -11.07341509809685    3.47670048396212   -1.65745339320022
C          -9.84109774772434    3.47302574462502   -2.20775198099310
C          -9.42180362072741    4.14149526426298   -3.39732099213391
C          -8.03176666804338    4.24971491949485   -3.63905695450545
C          -7.50354523990318    5.01812068946123   -4.74007583760063
N          -6.17433644840325    5.23684988606209   -4.82981441570993
C          -5.38270101132607    4.67772373976071   -3.95619556003832
C          -5.90039057074733    3.79228868142963   -2.94722936337002
N          -7.18915692017439    3.62426959350101   -2.80222652085625
C          -5.01343024723037    3.12785923867887   -2.06741703210878
N          -4.27507807745876    2.62143430284363   -1.35148717857648
C          -3.99830049120368    4.97845291955859   -3.95005862589589
N          -2.88094991050446    5.21652790958566   -3.86013176191177
C          -8.34650893527902    5.58669960162251   -5.69780703827599
C          -9.72110714058015    5.44811374891332   -5.49522580563668
C         -10.26123582954520    4.76731102068069   -4.33620129309028
N         -11.59727864378360    4.78837717218725   -4.33785311617029
S         -12.11064476091041    5.55781599991168   -5.64543158887788
N         -10.69158471968534    5.92179063511267   -6.28775545621080
C          -7.79132539812775    6.23842151780330   -6.92528776870145
C          -8.00707897738770    5.28100275790682   -8.11610720525791
O          -7.61900408425168    4.15782974761370   -8.21314068360833
O          -8.74287054486599    5.89918834191734   -9.06290828845970
C          -9.05809986380763    7.16858318768290   -8.64893145732315
C          -8.52515553350797    7.45291153816807   -7.38982193482261
C          -8.72621625111476    8.67863404077824   -6.78483436205356
C          -9.48336628765714    9.58502867881350   -7.50557277651631
C         -10.02400796990229    9.29736832344402   -8.76057565576626
C          -9.81681037792229    8.07296682348839   -9.36784296165381
C         -10.77279242262267   10.50577055254629   -9.21775632177914
C         -10.56235812358510   11.46310827566466   -8.03354235457023
O         -10.97491901307817   12.57435467472147   -7.91198294118053
O          -9.79926832190653   10.85237169269716   -7.08945314305245
C         -10.26516097009819   11.13226847791256  -10.48331726211515
C         -11.01180345029791   12.02814632807444  -11.27761056256293
C         -10.21770714526192   12.43065702051171  -12.35672592271705
C         -10.47711090978219   13.29243952197976  -13.43054203158202
C          -9.47107732889050   13.48096163475352  -14.35343397705061
C          -9.40930452698298   14.26840129536835  -15.53754826204143
C          -8.15462036690506   14.10617997486720  -16.11996456181112
C          -7.40961857711255   13.21382460792780  -15.30630732562717
C          -8.19489224252389   12.81791598581732  -14.21874543161586
C          -7.93448581537317   11.96030594586067  -13.14411968675329
C          -8.94246533448728   11.76879833353355  -12.22180861422011
C          -9.00828783757531   10.97532643073784  -11.03887030690176
C          -7.64636691406255   14.70675065972047  -17.33088085698471
C          -8.30611073877792   15.56539380740261  -18.10365303409504
H          -5.41528096470062    6.79598922322816   -1.55197370011662
H          -2.71098907323490    4.10885031942510    1.69967489712450
H          -2.94243298181588    7.82616535863002   -2.37095492922588
H          -8.16594523729117    2.46273870748742    2.13360210369263
H          -9.02280771249480    4.21320914292311   -0.08845222425091
H         -13.42398631149631    2.27084542719689   -0.57041876543899
H         -11.91140268391427    3.89123842871844   -2.19865157723388
H          -9.03170901565831    2.95135450357347   -1.71799406774752
H          -6.71877619248774    6.39548756473979   -6.77193180123053
H          -8.32504160659977    8.91952026504184   -5.81497962211090
H         -10.21904331804383    7.83467653523513  -10.33781042713668
H         -11.84719964283638   10.31858464876380   -9.32006065278133
H         -12.01783124411172   12.34589932590075  -11.07429648864306
H         -11.43353445006687   13.78706081116417  -13.52442031886758
H         -10.21011416387824   14.88043801064988  -15.90851460005359
H          -6.40031224376871   12.89797399592103  -15.50318439014226
H          -6.97670569015964   11.46849182649876  -13.04647585917424
H          -8.21523913496268   10.35817092903369  -10.65745419038527
H          -6.64017138643415   14.41049921342844  -17.60049214597610
H          -9.30640503646860   15.89039958552573  -17.87472281496479
H          -7.86431105151741   15.97437646951170  -18.99558195278754
