97
 SCF done       -192.385448994964          0.000606002850
C         -16.50499084641075  -12.14337743795404   -1.18473950317995
C         -15.55094125347967  -11.93108066209066   -0.21510029284571
C         -14.89759545800361  -12.96120686463795    0.48909307672345
N         -14.32698971510868  -13.75105392061423    1.09799037454435
C         -15.08813006748942  -10.67605111706082    0.22656588519126
N         -14.65178355421374   -9.69967025066623    0.64851100868036
C         -16.97718275002913  -13.45544322936232   -1.62421125409622
C         -17.97714164509827  -13.27072261788670   -2.60962627158143
C         -18.61210805595297  -14.31918273474358   -3.22735511103451
C         -18.23995568360218  -15.61687686712806   -2.85815662797333
C         -17.24049283965610  -15.79185830446912   -1.87368104853528
C         -16.60028530611897  -14.72944728254092   -1.24585168237055
S         -16.92783679139491  -17.47493341773995   -1.57199758848678
C         -18.12764546814723  -17.91345746849927   -2.75881174099198
C         -18.73319113668407  -16.85677156611541   -3.34993844221344
Br        -18.46593167861322  -19.72589658424086   -3.10633197978869
C         -18.17502456731438  -11.82292859129929   -2.83622257726712
O         -18.96437822048849  -11.31840436154183   -3.61148805270603
C         -17.21849561567182  -11.14654842906224   -1.93959855659164
C         -17.02982163984852   -9.77971547103750   -1.88118105702003
C         -17.72015702372889   -8.83973039182405   -2.63784388406698
C         -17.44160504683317   -7.48623539129045   -2.57762165698670
C         -18.05444345820915   -6.45812637583727   -3.32682485511200
C         -17.54046096764973   -5.21434273928700   -3.09250636642963
C         -16.50025164281069   -5.20411146473296   -2.14202671626134
S         -16.20134904235953   -6.81794028614826   -1.54128847000130
C         -15.74046701609805   -4.12782925979041   -1.70883600812662
C         -15.79004249379706   -2.78729130120100   -2.14443592897060
C         -14.85688444513862   -1.98544011778261   -1.55621248709614
C         -14.02661785286768   -2.64532994937807   -0.61785637818546
S         -14.49519958494214   -4.33033711177576   -0.50420671171553
C         -12.97755108564430   -2.06534896985359    0.05823812642465
C         -12.12739882032779   -2.65752859969285    1.00042237360259
S         -10.71003279083063   -1.74104721327945    1.52408676039185
C         -10.21953298074701   -3.03209623015003    2.55255933178071
C         -11.13812545545228   -4.10048736565619    2.50003733791144
C         -12.19555368633756   -3.89781027997093    1.62965947717833
S         -10.69416847094537   -5.42191385407225    3.54564127144039
C          -9.26440547395209   -4.55020454983775    4.03144182607737
C          -8.21003912737043   -4.84505087034354    4.87661828849303
C          -7.25208635481654   -3.83124144264468    4.90432519069315
S          -7.70789111479540   -2.47746510119773    3.87432200477957
C          -9.15577269482365   -3.29092754849474    3.40677088418301
C          -6.05004355334693   -3.87865706329837    5.61859959101956
C          -5.00708352916337   -2.98350601781563    5.58510177566020
C          -3.77407245665019   -3.13263239718681    6.26646761596485
C          -2.86326487849197   -2.15691452581472    5.99404782880829
C          -3.33268986647987   -1.17713512014249    5.09514667250804
S          -4.98069140985429   -1.52023569159385    4.62006364255996
C          -2.63864450577535   -0.09527408329821    4.58253109114992
C          -3.11620015791286    0.88200677808637    3.68727494659229
C          -2.17396834130403    1.79820595112843    3.32120370735803
C          -0.90390552863676    1.57939173957625    3.89997001143489
S          -0.95482065657502    0.19429974248723    4.96373445353907
C           0.23930962939066    2.32020855436303    3.66675349756535
C           1.48426074028730    2.00585167666006    4.19850428999100
C           2.67927166332331    2.66731239803859    4.01124079799638
C           2.98930594071382    3.96075816865007    3.46839263790848
C           2.18319894777073    5.07637131024932    3.46488047339173
C           2.57164186748925    6.32453747035264    2.94192645381767
N           2.82617663342302    7.35808276772604    2.50949660538746
C           0.91738666462777    5.14411119426858    4.07876485078047
N          -0.09782165148952    5.27466841859630    4.60026979357876
C           4.40726245974437    3.95308212665392    3.10652675297966
C           4.99467305311622    2.76354836385993    3.60485926598933
C           3.94711728698581    1.94206006731441    4.24886122195831
O           4.08506624744503    0.87719665973296    4.81199155818366
C           6.32806290041905    2.47732261070812    3.44920328094690
C           7.11811395559409    3.40298161099839    2.75760221096324
C           6.51964134213182    4.58064968149833    2.25350447944805
C           5.17087640620880    4.87563914170534    2.41982250869390
S           7.67328712646043    5.57758464781266    1.41959016403351
C           8.92789369327347    4.41482858965797    1.75834422506249
C           8.50690782272096    3.33538550393278    2.45833755391412
Br         10.67419851481926    4.73474065385780    1.15183067760136
H         -19.36993296531879  -14.14542314663309   -3.97518432247148
H         -15.84350220060032  -14.91718857273197   -0.50290547083798
H         -19.49507984149812  -16.94526046318314   -4.10276232841658
H         -16.27273301798567   -9.39767606470592   -1.20715001530964
H         -18.49310007443680   -9.17232909828311   -3.31536599211970
H         -18.84898290064223   -6.66913143691243   -4.02012478982538
H         -17.88159863086685   -4.31711856763962   -3.57698275014645
H         -16.49531837359577   -2.45393251023990   -2.88387269030764
H         -14.73444104404202   -0.93843886589947   -1.77024083266877
H         -12.76625561207772   -1.03243962981796   -0.18799380735690
H         -12.98533165746726   -4.60745750779245    1.47393190972011
H          -8.11329755172246   -5.75502030538005    5.43921053401016
H          -5.91265297986841   -4.75332817680268    6.24192543120143
H          -3.59699076463636   -3.96594991039768    6.92289013189585
H          -1.86892128562225   -2.10873792087205    6.40174437719895
H          -4.13565701509085    0.87261868905366    3.34261368593314
H          -2.34782355614221    2.62084529084185    2.65113471455085
H           0.13771810039078    3.15475969249718    2.98861536622176
H           1.56739090814768    1.07247339300158    4.74823870093267
H           6.75043367912469    1.56720591006105    3.84527398703861
H           4.75923254749685    5.78431622075997    2.01296058500214
H           9.14660679925402    2.52310564629037    2.75166697037097
