93
 SCF done       -174.293095011860          0.000736337047
C          -3.09511353228609   -0.53398443950671    2.16412634504164
C          -4.18824113752724   -0.18112412157552    2.92203004721838
C          -4.56713925579020   -0.82736206673360    4.11484663982944
N          -4.92630350541006   -1.30604492994348    5.09578153665860
C          -5.07310082934412    0.87376303721100    2.62780962431668
N          -5.83686918299826    1.71545349608142    2.45662933064279
C          -2.18519734594752   -1.63594091380234    2.45236115483752
C          -1.17318613677569   -1.66803028087324    1.46117517778559
C          -0.16704840925746   -2.60151260464188    1.45828721957135
C          -0.16383748032482   -3.56085670916416    2.47733955933911
C          -1.17808943245952   -3.52213556139180    3.46265609299350
C          -2.19178347716506   -2.57190437248636    3.47049388917052
S          -0.98351765894903   -4.79460399758797    4.63034943508446
C           0.43674826520197   -5.35502228327615    3.78789122350159
C           0.75151532354694   -4.62792128957642    2.69014953418325
Br          1.37153928100540   -6.84413711006310    4.44047808069163
C          -1.39211636365024   -0.56769043352849    0.50362851867606
O          -0.62013628572626   -0.18143675238146   -0.34453059647568
C          -2.66853242936485    0.07547756549608    0.92509999487001
C          -3.24152978702802    1.13690398577498    0.28485154698263
C          -2.95964345776045    1.49919889382578   -1.05389206557207
O          -3.22863421435463    2.77183737102970   -1.46581515061895
C          -2.54618432294585    0.76877315867031   -2.15469369775611
C          -2.21976032479279   -0.57894493222014   -2.63411630667317
O          -2.21690982049351   -1.64642910352451   -2.07903395091598
N          -1.96039790309702   -0.38634985289484   -3.99110490258525
C          -2.14012465147338    0.91317203536943   -4.45682706624848
O          -1.98859072343950    1.27091337647839   -5.59625326804016
C          -2.54722488229661    1.65246819852971   -3.25834667276428
C          -2.97127552188442    2.88420636701751   -2.79458998136546
C          -3.17138330899169    4.11407023835088   -3.47887531397349
C          -3.60029453933799    5.23995291907108   -2.86711032736285
C          -3.83609000964894    6.46672665191052   -3.56125502135283
C          -4.22797381716535    7.61766966123833   -2.98865577693495
C          -4.43386116500848    7.79727489089611   -1.51683342277422
C          -4.51658019587557    8.85387186722637   -3.81141317423397
N          -4.72508135669349    8.61457432967664   -5.21047291772702
C          -3.80020492716077    8.81972637429224   -6.17134068974895
C          -3.95124018747401    8.43747927086967   -7.46791824597715
C          -3.01574982068805    8.72622294639839   -8.47576008487520
C          -3.16105747580995    8.37281152440468   -9.79304793820054
C          -2.27591000762909    8.65405295067284  -10.86018212454421
C          -2.69425799978816    8.19325039925802  -12.07229386492868
C          -3.93160688207006    7.51377164321702  -12.03355222903062
S          -4.55424406970421    7.48089468504073  -10.40189287953510
C          -4.62011782972435    6.92849078838287  -13.08072670088933
C          -4.25574887299153    6.89598062106577  -14.44310160345080
C          -5.15327253115938    6.23578937126808  -15.22206425764110
C          -6.27629525816190    5.70290172536780  -14.52655088244865
S          -6.13601736790124    6.08432336684007  -12.82240751395007
C          -7.27066251054048    5.01990628560308  -15.17757220423192
C          -8.46232845084320    4.39112055087485  -14.72851179953770
C          -9.30957438542160    3.78784779798385  -15.68257207167957
O          -8.90397022435035    3.91909453738602  -16.97754362477412
C          -9.21963834982699    2.94640473336149  -17.95178467731927
C         -10.52615687697950    3.14574845027746  -15.30528830447577
O         -11.29554345138592    2.66628951620456  -16.32718272526216
C         -12.51130628798865    2.03038315323408  -16.01602859163224
C         -10.89886865662554    3.04174289617561  -13.98378541871424
C         -10.07635101442995    3.61137397492241  -13.00635869725125
C          -8.86812098231238    4.30088126250783  -13.36969671002895
N          -8.24055235076935    4.77932755443644  -12.30645541207829
S          -9.07655254138602    4.40258022225820  -10.97633174989104
N         -10.28562836157749    3.61102872383148  -11.69094966723651
H           0.58732157093327   -2.59865677210649    0.68774817839579
H          -2.93962253298718   -2.58382101766966    4.24556333427645
H           1.59380350510042   -4.83337584851845    2.05507532021949
H          -3.97697615328407    1.75189665424242    0.78499228540642
H          -1.68933417717494   -1.14590562316329   -4.59920759338736
H          -2.96058588250709    4.09005006998345   -4.53825837691506
H          -3.79285565146354    5.20594236240087   -1.80495504576762
H          -3.68493000348346    6.43404712785898   -4.63282551858013
H          -3.67764408288724    7.26852819219860   -0.94364581489250
H          -5.41016916023329    7.41175376727530   -1.22149933997641
H          -4.39494537940297    8.85131649973379   -1.25173153643543
H          -3.68544851281634    9.55964598701382   -3.70091363457603
H          -5.41283355394437    9.33662037465567   -3.40094795941206
H          -5.52104381845016    8.04315852949551   -5.45441505837382
H          -2.91847300347890    9.36236470055451   -5.85817218725406
H          -4.83991899874950    7.89236537920375   -7.75745921176263
H          -2.12216818371095    9.27225104969211   -8.20275469975045
H          -1.35817011797697    9.19179833660067  -10.69787475577492
H          -2.14725668640561    8.32005979092432  -12.98920766436955
H          -3.35626765042515    7.35601862350889  -14.81230920921676
H          -5.05283784837384    6.10819719996240  -16.28592057679321
H          -7.12424025823985    4.94185404213118  -16.24746903781584
H          -9.13236576574298    1.93338351233379  -17.55383968551893
H          -8.48302656555718    3.08838712462356  -18.74391747352426
H         -10.22194884593475    3.09134396723043  -18.35849175555308
H         -12.94004801516825    1.74136468071133  -16.97443709520789
H         -13.19839962309480    2.70794525366397  -15.50046723756024
H         -12.35286262234648    1.13635223267898  -15.40532346352100
H         -11.80686471245271    2.55622218816438  -13.67332985439887
