88
 SCF done       -172.937898537185          0.000707381312
C          -9.64447621668370   -4.24614455706278   -6.05248251756865
C          -9.45970824421959   -4.98514433139396   -7.19289875775392
C          -9.41964456922008   -6.39466045805472   -7.22598147430123
N          -9.36726108726853   -7.53755698990868   -7.31907038567468
C          -9.29427105762045   -4.44799701897973   -8.48554163887475
N          -9.16505960381688   -4.07178415438523   -9.56329100334630
C          -9.88914572620094   -4.78816335399010   -4.72133880782822
C         -10.08785929005751   -3.71321858311502   -3.82045117355560
C         -10.35006375965378   -3.90107937636384   -2.48565233232328
C         -10.42782274845608   -5.21661876483260   -2.01618765958843
C         -10.22712855677641   -6.28531878604494   -2.92229442928745
C          -9.95672831857277   -6.09369804052842   -4.27171823291677
S         -10.36584407545099   -7.82654573198746   -2.13285323964473
C         -10.68951188758932   -7.02621235246733   -0.61812869072275
C         -10.69249525904949   -5.67393594386356   -0.69670444634893
Br        -10.98918644327082   -8.05026527939167    0.92363189307303
C          -9.96598082328879   -2.43782757235568   -4.54595581623749
O          -9.99231166133630   -1.32125001157235   -4.06472354069312
C          -9.70020674376088   -2.80076681585756   -5.95232043621693
C          -9.36878080357851   -1.91991873946585   -6.94571894562743
N          -9.56415582929357   -0.58459911022249   -6.94865164625014
C         -10.49579826706632    0.14708367324488   -6.25840683774522
S         -12.03426950237324   -0.51844964694109   -5.83161103052550
C         -12.51115241098555    1.02532493159315   -5.21641767623045
N         -13.78639796534276    1.13759633592843   -4.64744272428560
O         -14.12440600108416    2.22837086383543   -4.22698992416948
O         -14.46734188978312    0.12739687053969   -4.62146160181224
C         -11.55122450923223    1.99136641969238   -5.34685633893720
C         -10.37635251690198    1.50904641403419   -5.95937232457202
C          -9.19819965113822    2.27979789575455   -6.23342504971105
C          -9.01898499766981    3.56722377722468   -5.86674706335926
C          -7.84228978650014    4.31906864456807   -6.12135284244667
S          -6.39733415376341    3.55139995012197   -6.72799889233589
C          -5.50525702806169    5.00999444459484   -6.55122699707446
C          -6.24363368871689    6.03342117222705   -6.05416574735480
C          -5.70914443803797    7.40490865021729   -5.81131810588357
C          -7.60681224516110    5.65999245231709   -5.82468746296451
C          -8.58509249037378    6.59581446102879   -5.35632618485774
C          -9.89996550567256    6.59737742145253   -5.69418853343108
C         -10.88030369050069    7.49683578021540   -5.20100689877686
C         -10.72178370980750    8.35323210632646   -4.14860737186231
C         -11.72731081619344    9.20861668989913   -3.67909122023427
C         -11.58518203439584   10.03439008435989   -2.59015367724519
C         -12.55383437236682   10.90892162543333   -2.04257310115054
C         -12.13777690907561   11.58590600559839   -0.93623290163396
C         -10.81327400761742   11.28562937229179   -0.54546479317504
S         -10.10734250548743   10.12115662083907   -1.64154677378567
C         -10.11180673554731   11.77985515660307    0.53654212771995
C         -10.55435624010622   12.69397887129802    1.51920977863746
C          -9.62740716822169   12.96487141232583    2.47696878185295
C          -8.39429685935162   12.28230965405103    2.30672151196271
S          -8.46319206324295   11.28202736724771    0.86774894620953
C          -7.30764996549785   12.37060361113667    3.13435252484495
C          -6.07549963055151   11.70764170050289    2.99858643908151
S          -5.64358262094863   10.61806342629963    1.69059614381553
C          -4.06839525554772   10.30397966292112    2.30269272301916
C          -3.85481139907816   10.99780214429574    3.47063879224949
C          -4.98594264532266   11.78140143328238    3.85049093843553
O          -4.74904940108587   12.44758464043649    4.99978557410813
C          -3.48324796492378   12.09927432717937    5.35753778249382
N          -2.96139436931036   12.65454608329792    6.54953090035960
O          -1.82439320381815   12.33409976380968    6.84290804098720
O          -3.67115635743904   13.40008236554245    7.18919373566842
C          -2.88481218977271   11.23125150995009    4.48379679686933
H         -10.49720959180114   -3.06066245166145   -1.82566481365710
H          -9.81030691350568   -6.94100075256768   -4.92047444471891
H         -10.87458464165926   -5.02461068449271    0.14015037268309
H          -8.86503837503917   -2.28762867680268   -7.83062583810619
H          -8.98929598063249   -0.04777073586408   -7.58815918472838
H         -11.70474222309648    2.99739698397867   -5.00336438411065
H          -8.39471882448935    1.78579071347613   -6.76436338480622
H          -9.78727755344221    4.08135626452723   -5.30943781697204
H          -4.47054408752075    5.02255664936461   -6.83310270655039
H          -4.66790473172231    7.46464958605093   -6.11687960557424
H          -5.77553460165539    7.65650683877604   -4.75308552488251
H          -6.28348693495797    8.14134922442827   -6.37151172753360
H          -8.20238497241002    7.39106534038354   -4.73183565490655
H         -10.24058594421059    5.89000738626211   -6.43944533265970
H         -11.84555934403727    7.47161806106356   -5.69072914617843
H          -9.78124688387188    8.37755780277262   -3.61403732689927
H         -12.68140776401813    9.21666499938142   -4.18978801697036
H         -13.53075777281807   11.00545779642166   -2.48268932462139
H         -12.74454880407409   12.28681183486203   -0.39178001943400
H         -11.54119514404454   13.11982791760003    1.49506219107295
H          -9.78326142082403   13.63096482799456    3.30681469858205
H          -7.38751556494718   13.01514579983797    3.99999357733160
H          -3.41199046831154    9.64244026200959    1.77728131032475
H          -1.89660958865942   10.83027483756380    4.57259592219160
