96
 SCF done       -172.399170471255          0.000897662390
C          -5.32600114016194   -0.23878305564507    2.78336471470102
C          -6.09885901558078   -1.37223213951533    2.80032172850139
C          -5.80928804473527   -2.51519135343675    3.57473530829433
N          -5.63061102823099   -3.47436710255363    4.17988148349285
C          -7.28743999158642   -1.57380959783826    2.06878777950929
N          -8.26287667806309   -1.81779920104475    1.51254355225720
C          -4.09730310514150   -0.05093090044386    3.54515979828868
C          -3.58930259674693    1.24242954919292    3.27655644684438
C          -2.43902773498944    1.72472945410074    3.85189800508445
C          -1.74566808800727    0.88320068885910    4.72725745602593
C          -2.25521416198259   -0.41194156639141    4.98461843973695
C          -3.42416640628480   -0.89456873405110    4.41043561661431
S          -1.23902174590224   -1.28999827596898    6.08753352142644
C          -0.15885733211149    0.07520308613121    6.18531475447871
C          -0.53776892780271    1.13550303058798    5.43311239292113
Br          1.36691612159135   -0.02822299235857    7.27101721621225
C          -4.46195153843312    1.92539497600086    2.30131632252583
O          -4.31873126592062    3.05798917752503    1.89333781148592
C          -5.55151110720734    0.96374221259540    1.99733387521616
C          -6.66492199974966    1.20712541952441    1.24794564138210
C          -6.87886320149371    2.28662766260417    0.33548641989856
C          -5.82592712403029    2.79838445263932   -0.38526528981523
S          -6.24311728557747    3.99849082817586   -1.51139765827837
C          -7.90540160915786    3.89746886889018   -1.00666855904410
C          -8.13648178735101    2.91945322507814   -0.02766712244155
C          -9.46119495791813    2.73785971719698    0.44865547835063
C          -9.75428836291297    1.64626080466990    1.44688720223516
C          -9.27521183303243    2.02106782038852    2.85057878024896
C         -10.48389243929149    3.56712106440871    0.00081108234051
C         -11.90058706435585    3.40508833452336    0.48590549415698
C         -12.66894081898756    2.40912591414082   -0.38613532057878
C         -10.23114720602298    4.55289386008473   -0.98147040026331
C         -11.12577214348914    5.46875470934315   -1.64417295236128
C         -10.49780039647772    6.18284932507233   -2.61381044932344
S          -8.81157281350223    5.86281648106990   -2.76274030755990
C          -8.93369672170843    4.68042735301707   -1.50103996961799
C         -12.54938416075473    5.69911480652372   -1.39934641430018
C         -13.48426963929442    5.42244358091188   -2.31398419567885
C         -14.88414266592007    5.71220141963982   -2.13681837994613
N         -15.73259220669486    5.33469439014038   -3.09680543061283
C         -16.96549682536685    5.75350297141508   -3.03341199560395
C         -17.31868980388027    6.72697969880950   -2.05894932508163
N         -16.49189596941229    6.80950673163946   -1.00203219214499
N         -15.32987516110976    6.27420437883434   -1.00115044139639
C         -18.47683232318007    7.54164604849381   -2.06680607045267
C         -19.25575358403454    7.82167249840910   -3.15637869499728
C         -20.39185482346055    8.67406408269390   -3.17565961705891
C         -20.95001905399691    8.84644692902802   -4.40542431041326
C         -20.29263791542656    8.14236125277145   -5.43680602134845
S         -18.94195368979062    7.23576994065397   -4.78314392438631
C         -20.58993009647044    8.10509509285857   -6.78461766229062
C         -21.63517550027570    8.74271706342921   -7.48448143425155
C         -21.63439203473521    8.49493657735098   -8.82489084886066
C         -20.59127459564259    7.64831815327573   -9.27266531152520
S         -19.60732578973801    7.17693886814264   -7.89682849983912
C         -20.40148020183077    7.27143179765211  -10.58095977109532
C         -19.43477110324711    6.45825060858299  -11.18014976238323
S         -19.57293366238627    6.22427252974237  -12.92179201390819
C         -18.18228401687016    5.19210095292933  -13.04756615480265
C         -17.62260679682692    5.03228515480994  -11.78196181654475
C         -18.31752835584993    5.73422478264969  -10.74968883352641
N         -17.64227350941503    5.47128155510456   -9.60636984405259
N         -16.59121615376385    4.67069326899751   -9.82796554507328
C         -16.55181674355814    4.39286053490414  -11.10462289736192
C         -17.80564280154913    4.67090187945194  -14.32029520026070
C         -16.76685256103443    3.86099590702102  -14.54510491788331
H          -2.08276601323523    2.71786842175369    3.62754463256390
H          -3.77056634710719   -1.88719144606341    4.64331579644440
H           0.01087122675590    2.05777748581244    5.37663205973134
H          -7.46280179990098    0.48716985991903    1.32545782792323
H          -4.80798700577839    2.46665079947535   -0.34310883852831
H          -9.29439374214696    0.71497973306611    1.11695008582977
H         -10.82105025197827    1.44408309443580    1.48851127546152
H          -8.22368588515860    2.29972685193695    2.85015831048888
H          -9.41160017863707    1.18316126882505    3.53061457523650
H          -9.84567530568154    2.86798291699108    3.22575449745416
H         -12.41007260195746    4.36436619347584    0.43815035917486
H         -11.92275523559137    3.08509904989502    1.52701033055337
H         -12.69970723989546    2.75828119548455   -1.41535852575023
H         -13.69079870473848    2.31074791497432   -0.02776083951891
H         -12.19782406408254    1.42904249895136   -0.37224557417013
H         -10.94292421021149    6.92523149798344   -3.24733169698976
H         -12.84095646528842    6.17835506580451   -0.47355235891680
H         -13.23074233473790    4.95299526164901   -3.25413618395653
H         -17.68822936756892    5.27059173100065   -3.67608833338785
H         -18.71758076467524    8.03009133731594   -1.13306111398959
H         -20.75274353838250    9.13478399445548   -2.27323850843510
H         -21.80839747335605    9.46468458061662   -4.59938973602502
H         -22.35604204924168    9.36320556571112   -6.98347970132623
H         -22.35593976937976    8.89709466188177   -9.51419827964529
H         -21.13045839145304    7.67508476453117  -11.27429866058537
H         -17.83119901573659    5.79032953926454   -8.67101189603009
H         -15.77946395565500    3.76149907203272  -11.49269444095498
H         -18.43720776496487    4.97781966981895  -15.14409186718202
H         -16.11825519440959    3.53295529357150  -13.75347002595150
H         -16.54364325789341    3.50628557210915  -15.53524393543025
