132
 SCF done       -208.677316972504          0.000734380485
C         -16.78981862888749  -10.95088614906120   -5.39368868911799
C         -15.62741201191691  -11.35657645435231   -4.77453587574949
C         -15.02816650996803  -12.61561697810741   -4.96624306821882
N         -14.48525737201614  -13.62267200678899   -5.07882119764830
C         -14.86899988170139  -10.59888905160393   -3.86174705610068
N         -14.18922547837029  -10.06232961064466   -3.10503832152868
C         -17.56545217096667  -11.76517655134464   -6.32955908542277
C         -18.70435430838230  -11.02796521589605   -6.73314364837097
C         -19.63110297460855  -11.52075944040222   -7.61696138910771
C         -19.42387676837201  -12.80596660466647   -8.13195300890014
C         -18.28396363992341  -13.53390279718635   -7.72371785282942
C         -17.34623160639143  -13.03490497086030   -6.82656232772976
S         -18.21738616423150  -15.09710932940419   -8.48273789959179
C         -19.70347342691268  -14.75264182349487   -9.32690390039036
C         -20.22419910691420  -13.53318264557551   -9.05631315765263
Br        -20.42679810351368  -16.03716693215292  -10.48867205010957
C         -18.68847162547781   -9.70677918551308   -6.06462134678888
O         -19.52586872373332   -8.83221703818813   -6.18899430543233
C         -17.46501944118372   -9.69076706652102   -5.24742654123002
C         -17.03777465787037   -8.61274423929793   -4.49171989026524
C         -17.70116698816753   -7.40080293809337   -4.36713301094671
C         -17.19078483066572   -6.34698622768467   -3.62653082196645
C         -17.77019284312794   -5.07301866085712   -3.44454172366746
C         -17.02096496583255   -4.22096484273618   -2.68216905762962
C         -15.81443981415556   -4.78554815626439   -2.22621543294735
S         -15.66262989502387   -6.43801458825805   -2.78546952178866
C         -14.81290155616053   -4.20521726420792   -1.46549014337021
C         -14.73113604607196   -2.88662557351999   -0.96324624812817
C         -13.58295511335113   -2.63300431849234   -0.27858246009029
C         -12.68696665626316   -3.73433698861604   -0.19064807505686
S         -13.39850463841819   -5.11647638926208   -1.01676507358874
C         -11.44465182857556   -3.69170539888825    0.38044346064980
C         -10.46735095964891   -4.72558922798600    0.49707191210969
C          -9.13533121645181   -4.35431535301203    0.78692977507053
C          -8.14794925853578   -5.30427121137853    0.82106896394729
C          -8.47924701629773   -6.66472498156668    0.65803342054180
C          -9.79385336595766   -7.05363261025085    0.42821541377703
C         -10.76910955783142   -6.08918698293435    0.33418162187659
C          -7.28320965948147   -7.45354721700655    0.77851040651110
C          -6.19169315917371   -6.59380265279565    1.00428111960526
C          -6.65860784343664   -5.15017306713146    1.07308948884018
C          -5.94172918256236   -4.36844753374832   -0.04710712490223
C          -6.30495087565779   -2.89547238317974   -0.18537241542555
C          -6.47917862393533   -4.53918809123797    2.47868490556362
C          -5.04234962204843   -4.37206164784416    2.95560786856553
C          -4.91625868956773   -7.10081976611879    1.05809242249960
C          -4.70768456632905   -8.48511505910880    0.93341452391530
C          -5.81878092274487   -9.32707934424467    0.76046911257029
C          -7.09717823875397   -8.82648582649603    0.67156709968858
C          -3.40095685243067   -9.08484749217647    0.93839722035026
C          -2.20684019168307   -8.46170575193886    1.04623238325435
C          -0.97092297789757   -9.15723493444405    0.97746939846359
O          -0.93305985918422  -10.50066690576391    0.78993718942539
C           0.35930234450450  -10.88243367995107    0.72864400416624
C           1.18419606078775   -9.78095164546630    0.88204504813515
C           0.33594415300049   -8.67269482051788    1.04210948281686
O           0.63013919219419   -7.36435074111224    1.22243600334154
C           2.00059383558593   -7.03709178585880    1.24888640485224
C           0.68992586555349  -12.25399305804177    0.51511648985460
C          -0.24724124792253  -13.21608190035279    0.39130019400773
C          -0.04031190865977  -14.62244333241928    0.15171687136540
C           1.23256298531984  -15.18400814286790   -0.03570563221385
C           1.35714418389349  -16.52864203021479   -0.29069436239723
C           0.21836891783587  -17.35290817909415   -0.30569382399301
C          -1.04597964473000  -16.81566795906981   -0.11354795212995
C          -1.16444192915523  -15.45868111501337    0.09931171382839
C           0.63680662305090  -18.71901819071397   -0.52790932721587
C           2.03468488475966  -18.74640713757666   -0.65706513718121
C           2.61313461456407  -17.35057833078810   -0.51586752148628
C           3.32298272793481  -17.00016847164460   -1.84015106041883
C           3.92360474103216  -15.60343836175841   -1.93470869015171
C           3.50497441294462  -17.19963887964461    0.73383878353658
C           4.79821588264383  -18.00453482112075    0.73914596423180
C           2.67112546449129  -19.93266510363858   -0.94114181213558
C           1.93490557969467  -21.12044916134915   -1.04276378603802
C           0.54740930640196  -21.07527834381289   -0.88215288962312
C          -0.10662181372240  -19.88488845349527   -0.63736688973071
C           2.65199470462847  -22.35673204585129   -1.32442466777847
C           2.15705726479830  -23.58899572635261   -1.29583128969594
H         -20.48916219508157  -10.93407876705573   -7.90570121858173
H         -16.49311884580807  -13.63077301347818   -6.54902186373518
H         -21.13390487268748  -13.15902954060366   -9.48944539488031
H         -16.10049188344007   -8.70951505250658   -3.95703660007638
H         -18.64587105208967   -7.25990225582860   -4.87142819559442
H         -18.71928062468866   -4.82266507638182   -3.88417118398301
H         -17.30652124260304   -3.21195292197823   -2.44322113458954
H         -15.51059311145226   -2.16507196833644   -1.13003065370413
H         -13.34167187253474   -1.68400329730755    0.16770328032393
H         -11.14299409873776   -2.71872257683981    0.75250961165954
H          -8.91673842447392   -3.31050360956966    0.95668935729813
H         -10.04742885769229   -8.09714365035929    0.32339068610973
H         -11.78920392291777   -6.39560864262657    0.17206609918717
H          -6.16143445220141   -4.87493129436553   -0.99093743444329
H          -4.86684664649636   -4.45273879069172    0.12054538924880
H          -7.33877966116650   -2.77517010246462   -0.49598877190692
H          -5.67349149231658   -2.44101692037598   -0.94638041113258
H          -6.14869698918087   -2.35736478097350    0.74589678485589
H          -7.01128617064357   -5.18237603625090    3.18509971594265
H          -6.97509370474029   -3.56685181808227    2.49135139171849
H          -4.55568680334736   -5.33658875369938    3.06793857308731
H          -5.04072797269922   -3.88043418119240    3.92654929978529
H          -4.46374293770280   -3.76081835149387    2.26806815472462
H          -4.06472380562560   -6.45026461276773    1.17581600502550
H          -5.65412364136785  -10.39145714648185    0.67399948188049
H          -7.93801042252118   -9.48363740355077    0.50873876240849
H          -3.38480330491059  -10.16025160174557    0.81676086135126
H          -2.11320978675240   -7.39441592829890    1.17555862101595
H           2.25486199208845   -9.79675206430171    0.87483785675357
H           2.04907989990409   -5.95871382461103    1.38883277691273
H           2.49111809151847   -7.30565620536600    0.30782923721616
H           2.51214167021565   -7.53636497265786    2.07797790494526
H           1.74637084272522  -12.46720722887475    0.45523745698100
H          -1.28188673628218  -12.90892044053691    0.47542591831427
H           2.10272344439020  -14.55088367852377    0.02830570241147
H          -1.92088080526167  -17.44834974737110   -0.12859574290896
H          -2.14346408099101  -15.02413616053547    0.24305401850160
H           2.59248795169808  -17.12330978233523   -2.64454837704276
H           4.11101188513322  -17.73697929580407   -2.00543568765581
H           3.14807642292798  -14.84340398055550   -1.90576210474006
H           4.45392501756991  -15.50406235561378   -2.87998964261667
H           4.63189317353178  -15.41987559727262   -1.13087427774838
H           2.90510171754494  -17.49285654846479    1.59993359291717
H           3.74471067631889  -16.14131820631614    0.85187645312227
H           4.59264486986507  -19.07083168629536    0.75818309541132
H           5.37124227703874  -17.75843586850871    1.63117385014451
H           5.41209670179613  -17.77709570448802   -0.12843724813359
H           3.73967042303976  -19.97008823555907   -1.09535873447611
H          -0.02837490926337  -21.98320032865009   -0.97206201899267
H          -1.18190658155751  -19.86133119402847   -0.53959176547636
H           3.70058048059434  -22.22291891591662   -1.56438295024179
H           1.13157263998270  -23.80078603095469   -1.04640572702772
H           2.77323494739558  -24.44434895490714   -1.51409490611606
