87
 SCF done       -180.108923514902          0.000387199430
C         -20.28218788840019   -7.82741963581122   -4.18802157226032
C         -19.33467269852065   -8.58536277135726   -3.53440570639035
C         -19.43907979771166   -9.97386844599522   -3.32649266905392
N         -19.45701573214231  -11.10454257893018   -3.12079317545481
C         -18.13337573306585   -8.10849913986573   -2.97605903201414
N         -17.13420292254042   -7.81760168785895   -2.48659082134929
C         -21.52681804062967   -8.34950123720395   -4.75226785567664
C         -22.24630730272289   -7.27573952401489   -5.32977774678869
C         -23.46277210070922   -7.44185337718909   -5.94265688001070
C         -23.99792647909521   -8.73433972616236   -5.99129485068896
C         -23.27201017193639   -9.80085615964507   -5.41418231613504
C         -22.04011097519047   -9.63108738680734   -4.79174492504432
S         -24.11196671221823  -11.31305048602328   -5.58754158522244
C         -25.40934965501016  -10.50019819149340   -6.42203961037008
C         -25.22562462308469   -9.16670018912465   -6.56441813013928
Br        -26.88435149213735  -11.48990776536653   -7.02704970631017
C         -21.47536836744612   -6.02554285849608   -5.15545297728284
O         -21.81009811821485   -4.91917457764520   -5.53475039696199
C         -20.24663196206900   -6.41300782862042   -4.43952394942870
C         -19.23548590975316   -5.53591172828384   -4.08554195166120
C         -19.23073706870593   -4.17534495153445   -4.35424411124878
C         -18.19120970642268   -3.33782626851483   -3.97863069051932
C         -18.09347848560767   -1.95214509396943   -4.21019876237873
C         -16.94752512834824   -1.38386180315454   -3.72021028459256
C         -16.09636831748891   -2.30022607434858   -3.08073989368214
S         -16.77971501842108   -3.90589385026658   -3.11733409332379
C         -14.86983934591471   -2.06120219478846   -2.46559090854157
C         -14.17766973551929   -0.84535691647953   -2.33088964393638
C         -12.99656061789116   -0.96134255976281   -1.64857976345461
C         -12.70922728974801   -2.27088004145223   -1.21684290541985
S         -13.98335964144738   -3.36071009954900   -1.71355693715690
C         -11.60364627381583   -2.67165781383051   -0.48799794635614
C         -11.32563393774596   -3.95579380949122   -0.04564494946349
S         -12.30283305584302   -5.38465410010593   -0.34626840201893
C         -11.25904963221739   -6.47714644830447    0.57289914736361
C         -10.16825818369573   -5.73003596142892    1.08710108732703
C         -10.23350219868145   -4.36335250453872    0.72810642054612
O          -9.19173061053042   -3.67596695983480    1.21281242038247
C          -8.44017784099079   -4.58922236188866    1.88427376311824
N          -7.26294549654268   -4.13646735617421    2.50275520369373
O          -6.59896807274074   -4.97246914210827    3.09651861780282
O          -6.98307651643165   -2.95831597101737    2.41067385691527
C          -8.98245551216536   -5.85507184160062    1.84209185258198
C         -11.67068498289641   -7.79306740347212    0.62319673323190
C         -11.18062288557246   -8.90121074838662    1.30330407229655
C         -11.76963670355175  -10.17791647472520    1.21990159027183
C         -11.17553838038694  -11.12779047060654    2.00560289413142
C         -10.08782210858862  -10.64275880136648    2.75010303035943
S          -9.83026635288125   -8.94706042422111    2.40659474984467
C          -9.30355997267334  -11.33735534446710    3.66370703927423
C          -9.44229031567487  -12.68692776410968    4.05179101864880
C          -8.54663994542902  -13.07968125733768    5.00195033833895
C          -7.65399322130024  -12.05964231131475    5.40887069384254
S          -7.98892718649849  -10.58261452462948    4.52664496301516
C          -6.66842563788570  -12.15827999478069    6.35995437178777
C          -5.82005576621260  -11.09089702947180    6.70348967183751
O          -5.92548401186559   -9.91059866915464    6.06199483263763
C          -5.00665787075578   -9.05821766127847    6.56487533062175
C          -4.28466033894498   -9.69026934060903    7.56044132099341
C          -4.80029290795938  -10.99144939894896    7.65470564121155
C          -4.36487894879837  -12.06914531437970    8.57584675072257
F          -3.81945903561438  -13.11821311875268    7.92480623466409
F          -3.45259909111069  -11.65347510767062    9.46016124774539
F          -5.38801517714251  -12.58347859794823    9.28874109592425
C          -4.90869041143520   -7.72812616830244    6.03275014367680
C          -5.69405538752199   -7.28451558096667    5.05095811936843
H         -23.98631350140933   -6.60236155586025   -6.37262530329698
H         -21.52794438649132  -10.47813927183521   -4.36728836917905
H         -25.92489992718561   -8.51284829085754   -7.05285639947244
H         -18.37531726117279   -5.93351597049494   -3.56051658474582
H         -20.06806357048985   -3.73875406191387   -4.87908202833204
H         -18.86670144044217   -1.41386225027388   -4.72860770759134
H         -16.70630894778807   -0.33959284199707   -3.80553841192205
H         -14.55692402734727    0.07800091748163   -2.72940667411446
H         -12.33093240186020   -0.14183528230040   -1.44324558537933
H         -10.88111455995944   -1.91216497274085   -0.21858150866359
H          -8.55411170264332   -6.72145153183071    2.29922682957456
H         -12.56164613156436   -7.99890501993491    0.04020373609410
H         -12.61931078827061  -10.36259790434881    0.58714172337575
H         -11.50116257924618  -12.15013296561558    2.06359897495182
H         -10.19497117070074  -13.32890575177665    3.63159696562793
H          -8.49873674599003  -14.06604531947460    5.42720007745512
H          -6.53255913545638  -13.09393899018186    6.87923139393449
H          -3.49107495505928   -9.27392917548208    8.14600781423826
H          -4.14721040080052   -7.10696613379540    6.48024531624211
H          -6.44728986004059   -7.92370413784054    4.62054527448802
H          -5.61455549585057   -6.29210856186673    4.64746136282567
