146
 SCF done       -263.648353723434          0.002401266592
C         -15.96146408308290    1.94306881579402   -2.51488264109113
C         -16.33534431056836    0.88604386067951   -1.73066405534424
C         -17.19102906265703   -0.14773950393465   -2.15945122348278
N         -17.86035708831122   -1.03227081825302   -2.45815797312012
C         -15.87751700605149    0.66420800156556   -0.41379929784787
N         -15.54725787508463    0.43987068515535    0.66207259917293
C         -16.40642442502769    2.18479568024241   -3.87960706286450
C         -15.69432500282453    3.28863620862901   -4.41400793216164
C         -15.90879196569964    3.76158214273997   -5.68524106499105
C         -16.86897842636801    3.11251061729221   -6.46987345567949
C         -17.57789804724517    2.01081625906325   -5.92819183727282
C         -17.36546417979204    1.54007403537599   -4.63924986954632
S         -18.70361074336419    1.34024454292326   -7.06809721296966
C         -18.22272143994437    2.53725430501267   -8.23952693104887
C         -17.26545681137869    3.39358571199419   -7.80464467704209
Br        -19.02047056394775    2.54259013216560   -9.93609587452959
C         -14.74947035006805    3.79048339637964   -3.39979393289809
O         -13.83260970681505    4.56262798161170   -3.56626218076150
C         -15.05457428483096    3.02574501642614   -2.15776043840832
C         -14.53302856530487    3.33419989050586   -0.94921370190504
C         -13.76633249475503    4.54476974340877   -0.70154351610725
C         -12.45214643416695    4.41391711733579   -0.22940278965063
C         -11.61171670878113    5.49778101842691   -0.09563172295806
C         -12.07127849551710    6.78526549465211   -0.36159456730952
C         -13.38633424047154    6.94730696119142   -0.72907288159977
C         -14.23619749088627    5.84412484375614   -0.90891012993756
N         -15.52193524981166    6.29081951925739   -1.16318650870851
C         -16.70707051622777    5.50212380271238   -1.33515671016951
C         -15.58611652982620    7.66371849885585   -1.17293316399293
O         -16.59908349370669    8.30516326222246   -1.30118439672932
C         -14.17297404347368    8.19817448529951   -0.97746123338147
C         -13.74697906191648    8.94335413022909   -2.26268457432575
C         -13.68752842495038    7.92169656663649   -3.40190762628123
O         -14.60990483844252    7.28559148423988   -3.85674714074446
N         -12.38828245800859    7.83033169390081   -3.80427161346312
C         -11.92866275618762    6.88402598470496   -4.78127595116216
C         -11.57542393056902    8.72424635616602   -3.12190740108031
C         -10.22291550567530    8.93473123286817   -3.25477721153149
C          -9.60870970885678    9.91904293444180   -2.46249179840329
C         -10.39142778885757   10.66113208616091   -1.56896728050047
C         -11.75091892569049   10.42831415839523   -1.43120693800112
C         -12.34438003972302    9.45487510902396   -2.20625363670200
C          -8.18051970420802   10.06932403060581   -2.57879885240011
C          -7.40617731698148   11.04407297659672   -2.04311411278586
C          -5.98861683904426   11.08402503979048   -2.04572099825318
C          -5.10308081801494   10.08983971828606   -2.36814698809235
C          -3.69745697125876   10.13953272306409   -2.13978368986748
C          -3.04272925276123    8.96621268797318   -2.34209049800448
C          -3.88282751429607    7.91362120463878   -2.77779630091649
S          -5.52337042248140    8.49924573648285   -2.98103980497105
C          -3.61764640943100    6.57286015363593   -2.92640507045957
C          -2.48448253073862    5.82589918827416   -2.51223313547890
C          -2.68685712529234    4.48470957246288   -2.49752541388251
C          -3.98970753879886    4.07549439563969   -2.91941859423975
S          -4.88240004859506    5.49233785408221   -3.48403748108128
C          -4.50285190707601    2.81914759074710   -2.91173632367406
C          -5.83069767364904    2.47533087669945   -3.37277515406196
C          -5.98888077301731    1.36051657430583   -4.21226973578207
C          -7.16609947345544    1.10599881995028   -4.88251908327493
C          -8.24460241244837    1.98007326817468   -4.77511725641727
C          -8.13534877042182    3.04084515218343   -3.90652764509719
C          -6.97752787619056    3.24412006571653   -3.14548107416797
N          -7.19204279799682    4.26345293030381   -2.22391460790262
C          -6.49916121085435    4.41722435750108   -0.96991914683686
C          -8.40693912934653    4.85694426140346   -2.42468063002904
O          -8.85057309007252    5.78536076407386   -1.79228008680160
C          -9.10712447560143    4.12990040777879   -3.57726778279065
C         -10.47323180619602    3.66341020019353   -3.07088158127779
C         -10.32548706971643    2.67757422684842   -1.91248999703024
O          -9.56942290229449    2.76212991515927   -0.97284951277238
N         -11.21811363161042    1.66451269351187   -2.11916452869857
C         -11.40160944622665    0.55344503671894   -1.22292317475834
C         -11.83512565957146    1.78586705032788   -3.35206494949422
C         -12.77573806301975    0.95333600143189   -3.91078653987514
C         -13.26848959649086    1.26964644190168   -5.18723990960111
C         -12.77124665190930    2.39522884284980   -5.85762681907321
C         -11.82915095595398    3.22945652277199   -5.27863684348203
C         -11.37502610204276    2.93641335211738   -4.01029612512519
C         -14.34557543760702    0.51369495229888   -5.76997167997423
C         -14.80878493074662   -0.67349237709405   -5.30984161066260
C         -16.03930873026849   -1.21109043861257   -5.74637009138103
C         -16.75102402580803   -2.27019014582318   -5.26943648612565
C         -16.54691056315655   -3.26037122698317   -4.23035241302499
C         -15.76523873649724   -3.19770743955936   -3.10388807374538
C         -15.67788109237211   -4.23339434929897   -2.14547780821845
N         -15.52920501191086   -5.03294501261977   -1.33506024742683
C         -14.99920212248876   -2.11524145826447   -2.63971225356841
N         -14.36938263033742   -1.28964033847633   -2.14347554318035
C         -17.47699083197092   -4.35647999694062   -4.50311144688437
C         -18.37666948032091   -3.96270185200670   -5.52531814860987
C         -17.99774462156799   -2.62491515968230   -6.00325208233142
O         -18.55039884971697   -1.94279631701091   -6.83787293675910
C         -19.39464403914263   -4.76807683884881   -5.97238880667651
C         -19.52385341251674   -6.03564543794285   -5.39676312621732
C         -18.60686180048381   -6.43131918290065   -4.39411544418256
C         -17.58486185275034   -5.61182061321091   -3.93458278827043
S         -18.92981442647751   -8.04313655056697   -3.83279396458001
C         -20.27843247011068   -8.15970702255418   -4.93165008132242
C         -20.47676719309512   -7.05112850768657   -5.68400655481549
Br        -21.29036794056615   -9.73638715309428   -4.98939477509139
H         -15.36329533104323    4.61567882539561   -6.05407548460536
H         -17.93924424694242    0.70738954572629   -4.26867427461534
H         -16.85765027436164    4.19042324365261   -8.39931421405369
H         -14.63235718856516    2.64786707589787   -0.11683964579005
H         -12.08457402759119    3.42309348867839   -0.01101454646088
H         -10.58724968276098    5.34495140612836    0.20171700846175
H         -11.41197775904503    7.63251558456681   -0.25855659672378
H         -16.76725677079583    4.72677294529013   -0.56870250488194
H         -16.73169719737859    5.03982405732333   -2.32570854828922
H         -17.55524766599058    6.18241061833389   -1.24496712510056
H         -14.13726407654500    8.89652240705760   -0.13701816348241
H         -14.49290558131513    9.71567025023413   -2.47071522875430
H         -12.70497029676295    6.12713065424339   -4.88664965120492
H         -11.00923847411739    6.41975946468679   -4.42549378089851
H         -11.74473729067941    7.37019265559953   -5.74353249588627
H          -9.62774557310673    8.35839816834416   -3.94509386470596
H          -9.92574902342505   11.41481938052641   -0.95413277687356
H         -12.33294822879196   10.99976336543213   -0.72334502475568
H          -7.70752561473948    9.29433717842930   -3.16348771469697
H          -7.88128862003753   11.87677367817897   -1.54126130985155
H          -5.53846318200500   11.98879687233444   -1.65557437497588
H          -3.22713560842982   11.04043555813734   -1.78630076863015
H          -1.98960725723924    8.82012911474733   -2.17907013842689
H          -1.57977440176239    6.30884756732730   -2.18785494755656
H          -1.96286420000836    3.76223198457996   -2.16367609667342
H          -3.83479152941565    2.00294904104969   -2.66942188558077
H          -5.13730379036109    0.71453694645120   -4.36645097033302
H          -7.24009660877704    0.24199922237771   -5.52491163078561
H          -9.14729567142247    1.82003376235220   -5.34520708189461
H          -5.65828005697587    5.10772259256589   -1.03904616004461
H          -6.14269168575665    3.44584034987353   -0.63074959046146
H          -7.21688502533438    4.81450784029575   -0.25306050786686
H          -9.24046966212032    4.80550627216636   -4.42802302643791
H         -10.99783472567129    4.54530661943448   -2.67476088845487
H         -11.10379998885967   -0.38069916005525   -1.70313960714821
H         -12.44622283731442    0.47374095541259   -0.91701329070083
H         -10.77297568873327    0.72649040103528   -0.35045432562185
H         -13.15578480298756    0.11101384994853   -3.35703384576519
H         -13.14474365821034    2.61846485553256   -6.84603784086263
H         -11.47244893054292    4.09833265144182   -5.80868437856552
H         -14.86138074389012    0.98516915126145   -6.59821874465161
H         -14.26080731421166   -1.20454513690981   -4.55207888924660
H         -16.52080940012666   -0.69944658118896   -6.57515794804216
H         -20.06750435934617   -4.43199806073346   -6.74540987492497
H         -16.91215860543515   -5.96924845962614   -3.17383998614851
H         -21.26150009381926   -6.95272386216889   -6.41175388398246
