103
 SCF done       -192.050977442403          0.000629246873
C          -8.63371530253245    0.30392318175953   -0.89062710387110
C          -8.10534621018553   -0.89945318564996   -1.26078058688600
C          -8.86913251004385   -2.06389254052990   -1.49819726305772
N          -9.43895106731794   -3.03753332252207   -1.70676795166923
C          -6.72926933469824   -1.14903489142544   -1.46174669692984
N          -5.63156452662081   -1.42934160919181   -1.64294171527494
C         -10.04345615195825    0.59676307074742   -0.67792332697760
C         -10.19110639060689    1.96099296752880   -0.31861627715961
C         -11.41482488421180    2.52914047529396   -0.05569704686421
C         -12.54791241813492    1.71562415654006   -0.14857384833613
C         -12.39212500748585    0.35390358945523   -0.50825104193185
C         -11.15724037743662   -0.22075330803049   -0.77521652995636
S         -13.92077010051174   -0.46966892686526   -0.56753549503952
C         -14.73678248149287    1.00350255302031   -0.11544384727767
C         -13.90916077014329    2.05974694614159    0.07132908509110
Br        -16.60234322593019    1.00925721352806    0.06582811005416
C          -8.86904961115727    2.61169890412699   -0.29296708279666
O          -8.62633159882285    3.77533234954486   -0.07973163454064
C          -7.88793818251291    1.53423558002706   -0.62722297471852
C          -6.56618099627048    1.75470921451933   -0.65914912242457
C          -6.00569903995562    3.06911099111434   -0.29183873756986
N          -5.90050203148420    3.32149965951019    1.00844733836983
C          -5.42926750978253    4.51490977381392    1.33449983479364
C          -5.06831790921111    5.45820277102782    0.39174456177639
C          -5.17768044382518    5.08159782492536   -0.95286124785897
N          -5.63456504454528    3.86614537549027   -1.27552891563645
C          -4.81873663636118    5.92311477162744   -2.07401738075307
C          -4.59842238920911    7.24634124952281   -1.99734891850662
C          -4.27054135988283    8.12183547114024   -3.09608206687225
C          -4.42674750437263    9.51928592680411   -2.92688484703011
O          -4.88193302562810    9.93461782036715   -1.71276874741183
C          -5.06286908257124   11.31202441929848   -1.49114551175414
C          -4.13600622768211   10.36016010403503   -3.97936994093634
C          -3.65778218842605    9.89485844903318   -5.21653756438792
C          -3.47599837484753    8.49369575087278   -5.37226855697559
C          -3.79455182529639    7.65110770695171   -4.31972332361869
O          -3.00478238957508    8.05519667717012   -6.56011652317224
C          -2.82264334167421    6.66928185537102   -6.79561034861682
C          -2.29576413222729    6.51990044830746   -8.21482517794401
C          -3.40323421479018   10.87200682972887   -6.22737339873712
C          -2.84434012048602   10.69305503807047   -7.45764384689698
C          -2.66989414020962   11.74087592054694   -8.37492296944284
C          -2.07652278651340   11.58941985631841   -9.60459850305920
C          -1.88506595303021   12.58179398064252  -10.59424269029304
C          -1.25229908413134   12.13772032726132  -11.71658708670933
C          -0.90194628411191   10.76988877365422  -11.66997460502430
S          -1.41580228420529   10.05866145852610  -10.16406765284792
C          -0.22976547745164   10.03748799973498  -12.63587364879312
C           0.23974246585472   10.48307651800162  -13.88687054298603
C           0.88800192604165    9.51922564784350  -14.60490067441976
C           0.96647713828042    8.26987622689012  -13.95352509758744
S           0.16797823108612    8.34838464117601  -12.40341929150085
C           1.57856886162256    7.12850891007278  -14.44082906097679
C           1.67603098036819    5.94261097616876  -13.72743638447349
C           2.26327751899827    4.75757483440488  -14.12509312859844
C           2.69395182779994    4.28487941848069  -15.40955634160384
C           2.19900882238919    4.64999805551763  -16.64210867458032
C           2.65491645593854    4.11590111081762  -17.86165165199473
N           3.00441133577148    3.73327538943951  -18.88736246201201
C           1.10313714807508    5.51248012539117  -16.83518658705385
N           0.18659268689431    6.16892063055451  -17.05706911632556
C           3.61540920911618    3.17089238772485  -15.17851231973413
C           3.58846567433814    2.84188501616882  -13.80067211846348
C           2.68966918331382    3.78509557195397  -13.09871597382179
O           2.39812112106026    3.78662020287725  -11.92059168945825
C           4.33009924167724    1.81503867151763  -13.27262643857629
C           5.14853151234574    1.08550349982448  -14.14328732135281
C           5.17718396707992    1.42985634954885  -15.51371628407120
C           4.41733213783823    2.46337710443713  -16.05110342459682
S           6.26608779014598    0.41078827709393  -16.40675350359252
C           6.66039935984049   -0.45379125937613  -14.94475000104845
C           6.01215362116763   -0.00477259274098  -13.84473668763862
Br          7.89466382299199   -1.86583343765360  -15.00915900319721
H         -11.49319117623811    3.57061007513750    0.21422763723428
H         -11.09119632461729   -1.26155849624875   -1.04478436348624
H         -14.24375319423113    3.04158523983298    0.35233858767870
H          -5.85453895626476    0.99057692895007   -0.93758952328092
H          -5.34508977943743    4.70746965086260    2.39653408595080
H          -4.70054755613838    6.42709519344975    0.68340136198420
H          -4.79832687706929    5.40029907162049   -3.01919087227107
H          -4.71188525174732    7.75258870082317   -1.04945330043258
H          -5.41917283850212   11.39874305596199   -0.46586083329316
H          -5.81170890457893   11.73309690446078   -2.16917854910549
H          -4.12300083201659   11.86347928915305   -1.59493196121257
H          -4.26531919241463   11.42571648234338   -3.87199538254048
H          -3.65626340348213    6.58849686302227   -4.42693071871687
H          -3.77868255601064    6.14033226155008   -6.68580307372851
H          -2.10232914989212    6.25636992108155   -6.07707223636783
H          -3.00685939514435    6.93573032119198   -8.92337509728819
H          -2.14081553431590    5.46966272338026   -8.44183972023834
H          -1.35222133448001    7.04789536729383   -8.32287759924711
H          -3.69136383811414   11.88339055474759   -5.96051631367116
H          -2.51032130286357    9.71483312297558   -7.76355564360068
H          -3.02371440390007   12.73017115404605   -8.11243586525764
H          -2.22213706239223   13.59273694724358  -10.44632257293366
H          -1.02557367287979   12.75432112972548  -12.56738291342076
H           0.09310904578994   11.49228192725569  -14.22699127939220
H           1.30979981522984    9.66736498998379  -15.58281731102738
H           2.03123267647792    7.20980228271983  -15.41812925681135
H           1.34345605410066    5.95595595006167  -12.69328341648566
H           4.28483410452245    1.58119732783630  -12.22051488896627
H           4.47615461312930    2.69097099236349  -17.10247366182062
H           6.13674613760778   -0.42187785742179  -12.86206871171170
