121
 SCF done       -210.904679415371          0.000488351033
C          -4.02820457007422   -2.32252014727514    1.73224110329898
C          -4.90031232184907   -3.20178185442949    1.14515079467584
C          -4.83269626728685   -4.60202066333254    1.29986505705024
N          -4.83076135384317   -5.74623818010587    1.39404382533668
C          -5.95713901586380   -2.84484337274975    0.28065063654113
N          -6.82256683955037   -2.64317012400063   -0.44695371123848
C          -2.87479843285283   -2.68685108515754    2.54308226164507
C          -2.13411620433579   -1.51454501796059    2.82642472191349
C          -0.98304483636611   -1.52844801204297    3.57594311404566
C          -0.54178379465213   -2.75992875072052    4.07077110737536
C          -1.29151032114668   -3.92636461375723    3.78659018916012
C          -2.45490918334008   -3.91215526745616    3.02798776887849
S          -0.57344202055892   -5.33783785295763    4.50258665382786
C           0.70746483703663   -4.35558438909173    5.16212098770040
C           0.60492372048851   -3.03877910357909    4.86401189798443
Br          2.05801912564710   -5.16145459955843    6.18421877416860
C          -2.79644493149170   -0.34383728819213    2.21257304096339
O          -2.41310690984821    0.80274061391724    2.28378134260995
C          -4.03491666892607   -0.87521085231397    1.58625439828242
C          -5.10642313019393   -0.14925022745928    1.16245037628255
C          -5.20914624672813    1.25977934113861    0.91759936876221
C          -6.46772318594204    1.86417730246382    1.10774074565780
C          -6.61151061256021    3.20940884006571    0.89704381184016
C          -5.52304685312583    3.98176035912143    0.44386922166338
C          -4.29173787341406    3.38521606596883    0.20222570711164
C          -4.13974046816364    2.03658846763925    0.44612704727983
C          -5.96124875169126    5.34971216472224    0.30032528080014
C          -7.31606056299534    5.42882581122916    0.67389027345416
C          -7.83909960979774    4.07044598442123    1.07590975975404
C          -8.98452865962223    3.61587034921753    0.15158958129015
C          -8.58662695859115    3.59711249215656   -1.31943501908667
C          -8.32075354798205    4.06265222403828    2.53881037938187
C          -7.23962775452783    4.50019602494494    3.51988417546054
C          -7.97777380927343    6.62937491306599    0.64430948769291
C          -7.30417796140442    7.79203569011006    0.22705353892179
C          -5.95445766887771    7.69243701895055   -0.15021431754538
C          -5.28244760243147    6.48983332657556   -0.11402449188048
C          -8.03709779536954    9.02960444218646    0.22656954232028
C          -7.59404517853002   10.21833702726986   -0.24514377818013
C          -8.28846423655447   11.46439856684419   -0.23105672132480
C          -9.55241629878201   11.72815146179578    0.34627777037711
C         -10.15850293024917   13.04539595722475    0.32121105513748
N         -11.43542095352620   13.18734712537593    0.67659552684068
C         -12.10879624160084   12.15935123467881    1.14786927212820
C         -11.44242096948580   10.91728229710975    1.37853096789753
N         -10.21457100868273   10.73395531695921    0.95745832289103
C         -12.09560981007318    9.85940867616864    2.05614268761969
N         -12.64331861417708    9.01410047280864    2.60311038717526
C         -13.48407247096879   12.30437164488858    1.43856766578112
N         -14.59920429357298   12.38307584011819    1.69492259482018
C          -9.46612523219128   14.18739046737313   -0.17461750111715
C          -8.24947892155665   13.89442510316876   -0.84219078645338
C          -7.67336773649943   12.57647768613147   -0.85513690035805
N          -6.51440810213743   12.55333872334422   -1.51393173498638
S          -6.18652745823254   14.02841655115574   -2.06448686352163
N          -7.49496924433707   14.77657052280332   -1.48968646037819
C          -9.93752831811220   15.51542581815292   -0.12664995822109
S          -9.38134805188092   16.62975744021860   -1.32821305267544
C         -10.38189903703618   17.93405582616239   -0.74029661588250
C         -11.09774801710130   17.51677377178433    0.41260626114158
C         -10.81959288715229   16.16739895908432    0.77512072516469
C         -11.32038608472951   15.67208913944346    1.98303640779279
C         -12.15702699532195   16.43185033445036    2.77553062145806
C         -12.63702314254852   15.90806857808638    4.05265437038174
C         -12.91491003505404   14.63333466387189    4.28990770336311
C         -12.53554365021557   17.73004207578523    2.34826414104416
C         -13.50965868917446   18.53642731173351    3.14945772158091
C         -11.99914042572984   18.25111435381685    1.19507680239824
C         -10.29019135758287   19.13766442140026   -1.43689953836890
C         -10.82822360848609   20.36960858642248   -1.12941357575416
C         -10.64857856268442   21.48951391835587   -1.93190884426182
C         -11.13482048353282   22.74818430398868   -1.63086212557646
C         -10.98652561447195   23.92175759044754   -2.39912814804002
C         -11.56296455561291   25.03013251360188   -1.85026241840543
C         -12.19872280003417   24.78911313851266   -0.61296443193077
S         -12.04409516166543   23.10107631200812   -0.17404829350656
C         -12.85724224312084   25.69533594149613    0.19326719756519
C         -13.04490299840878   27.08277397808681   -0.04787828195710
C         -13.72670782142744   27.73018347474647    0.92522383792302
C         -14.13244314459772   26.89558512368934    2.01778509245173
S         -13.58787327579694   25.23772514601304    1.71482079359791
C         -14.81227361257928   27.25139931942308    3.11743787822858
H          -0.44047731065823   -0.61737277669098    3.77422955826165
H          -2.99488928768401   -4.82601108712453    2.84457069183928
H           1.30681711933963   -2.29295871472234    5.18986215716320
H          -6.03888905608264   -0.68816101433166    1.03292553852707
H          -7.29807009037387    1.26184620317611    1.44785183727981
H          -3.46268875237793    3.96700316134882   -0.17085633209846
H          -3.19429048876524    1.56356328479279    0.24091676434275
H          -9.83148291700805    4.29078750093123    0.28958207897632
H          -9.30156035516536    2.61563639465663    0.45350940905471
H          -8.28615529546272    4.58911712725128   -1.64987504165546
H          -9.42663578700349    3.27166338131381   -1.92837905444687
H          -7.75696808871107    2.91344973442104   -1.48609910095189
H          -8.65409947283025    3.05396430427508    2.79165104928638
H          -9.18035974473946    4.72988376747087    2.62638230964124
H          -6.37634753094509    3.84024846374104    3.46427538151046
H          -7.62632888699230    4.47574959318358    4.53599255765370
H          -6.91058198118220    5.51386377066686    3.30207063213866
H          -9.01576777898391    6.69863927232501    0.93683148607464
H          -5.42632118711520    8.57887991082026   -0.46498342404048
H          -4.24266188347304    6.43538903584672   -0.40038848239580
H          -9.03177943958890    8.98006440810012    0.64448644611997
H          -6.61747343691713   10.29040102846563   -0.70514917967633
H         -11.02292271296959   14.69565462773345    2.32476903817283
H         -12.77147920435995   16.63710519342625    4.84077885568824
H         -12.84414079618711   13.87935459025082    3.52458614474875
H         -13.25741848633721   14.29879284787976    5.25392971388159
H         -13.06768337559017   18.83747823669309    4.09970047281080
H         -14.40224565452549   17.95173334154877    3.36489402302953
H         -13.79962517092904   19.43508293289788    2.61065254907674
H         -12.28890606495287   19.24409433823123    0.89580955472631
H          -9.68004522738538   19.09118801927578   -2.33251340854367
H         -11.39272369330739   20.51155303199502   -0.22125365714454
H         -10.09230621963101   21.38674181538785   -2.85471867475933
H         -10.45710335936168   23.91456847746514   -3.33570506824023
H         -11.54436045100635   26.00586868177293   -2.30104542674990
H         -12.66599405598002   27.55354021627979   -0.93752027229244
H         -13.96360672754263   28.77911402174312    0.91773635615827
H         -15.12380062477755   28.27051373926812    3.26363792316237
H         -15.06520118427091   26.53950238763461    3.88148636735842
