90
 SCF done       -165.125027865560          0.000548785765
C         -15.76881051516199  -11.71364071594258   -3.40430021173544
C         -14.46793382213816  -11.56837879834294   -2.97635425925140
C         -13.50862780903651  -12.59985961889438   -3.00390928272756
N         -12.69496457455962  -13.40911536056134   -2.94038808949705
C         -13.89944503188740  -10.40775341024918   -2.41822557219298
N         -13.33568515174886   -9.51135396653912   -1.96902858141424
C         -16.29745632461423  -12.89852339382691   -4.07845485755663
C         -17.67358802533548  -12.69504201925426   -4.34187546944078
C         -18.45105415287584  -13.62776236637030   -4.98142384567088
C         -17.84107711922923  -14.82227590072687   -5.38157988530418
C         -16.46547654993361  -15.01354642527822   -5.11979002195568
C         -15.67733948898139  -14.06716659566550   -4.47477763457246
S         -15.91249060617480  -16.55534889556757   -5.70262399583469
C         -17.51755269763919  -16.91581119258264   -6.27977846900711
C         -18.42150486790056  -15.93480749384386   -6.05145277729093
Br        -17.84905131237568  -18.55471135238045   -7.13133289432078
C         -18.07420737334755  -11.36561905868172   -3.83092553159647
O         -19.18940546941379  -10.88205101382362   -3.88088396654060
C         -16.85191675049490  -10.77778030863727   -3.25577919794224
C         -16.79353547588323   -9.55269561917949   -2.61932152367344
C         -17.86514658144696   -8.69769294146415   -2.39151197029859
C         -17.70926159555847   -7.51001174347876   -1.69446243250920
C         -18.69613953042300   -6.57147332375833   -1.32528312822613
C         -18.21896703252686   -5.50853785644252   -0.60435693265906
C         -16.83206370789266   -5.55827439245584   -0.38379249067466
S         -16.14654149013876   -6.99280027705366   -1.11157943690169
C         -15.97387046599850   -4.69063713974332    0.28035580930154
C         -16.20256485123247   -3.49330041313346    0.98440549271976
C         -15.06272881121012   -2.93797661525559    1.49861237943050
C         -13.87999443215282   -3.66149239909498    1.21707039495246
S         -14.27714055923720   -5.08727320029580    0.28760656552763
C         -12.58565507872940   -3.34406379781027    1.57679915989336
C         -11.44277367090631   -4.06745132985496    1.21990957759753
S         -11.52834807664731   -5.48732114193056    0.21628218292634
C          -9.80034731063704   -5.68721564253271    0.23211215564966
C          -9.18993508183867   -4.67965702449164    0.98782606424464
C         -10.10327182249928   -3.78988783945173    1.54675678320967
C          -9.68409114053826   -2.63809253135054    2.40437415142155
C          -8.24738467573182   -2.81483775619074    2.88650108606342
C          -7.33110958952122   -3.16239182074559    1.71399579503186
N          -5.95370464566090   -3.22464049921326    2.17650699414574
C          -7.71278984920492   -4.53994410420313    1.16264801750834
C          -9.33956777337540   -6.78801884132583   -0.51621187571442
C          -8.09158130669968   -7.31889183068339   -0.63644406685291
C          -7.84536359527144   -8.42710842192539   -1.47577643802940
S          -6.24937875186324   -9.14152147733800   -1.59015183870902
C          -6.74003950736801  -10.34397011332521   -2.76145940989051
C          -8.08846936901926  -10.16768298196005   -3.02677572548274
C          -8.70110240867947   -9.11958251325186   -2.31999219169326
S         -10.38343674129100   -9.02339547689708   -2.76843743538513
C         -10.14451514003897  -10.36732465105864   -3.90536852198465
S         -11.28705073434357  -10.94959705768271   -4.89501166672301
O          -8.89505168449297  -10.83834213451129   -3.88074831747372
C          -5.84406032159209  -11.29791496937868   -3.29526326550678
C          -6.12758710997054  -12.28466396694364   -4.20267791101127
C          -4.90078030430009  -13.00188835644571   -4.44077982659502
C          -4.29067826964991  -14.00698390943408   -5.09755553239167
C          -2.86802965362137  -13.95874006949925   -4.63981735973042
N          -2.64486597958392  -13.00623817048965   -3.78225079017540
C          -3.86056543758851  -12.36917874067241   -3.60784284038229
C          -4.40560307678389  -11.35301278726395   -2.91826400441135
C          -1.86234786215798  -14.87611717423434   -5.10759723998612
C          -0.59497187045682  -14.83671192926042   -4.69783963295905
H         -19.49712630197613  -13.44320718783584   -5.16983248577680
H         -14.63076513158025  -14.25687743836171   -4.30546964694779
H         -19.45477434321137  -15.99036616762393   -6.34195414729376
H         -15.83066288711662   -9.23224530687064   -2.23816604248297
H         -18.84912874925976   -8.97022046069335   -2.74347110971364
H         -19.72843698038384   -6.70810173721193   -1.59477006999420
H         -18.82829332735405   -4.70205799151296   -0.23622157106956
H         -17.18619543688391   -3.07394295432079    1.09884542555126
H         -15.03964895802704   -2.02406289776608    2.06632147783396
H         -12.44334675901117   -2.45107720702967    2.17030578202241
H         -10.35416608306388   -2.54693558201831    3.26197547011994
H          -9.76711644065594   -1.71294329666356    1.82334804080031
H          -8.19107693904741   -3.61980437712003    3.62005450583811
H          -7.90412948876955   -1.89705685539744    3.36706747060897
H          -7.48315849910620   -2.40752961514890    0.91795115909916
H          -5.33026394281390   -3.45811780097340    1.41144381219107
H          -5.66145245840571   -2.33018182896960    2.55392166065137
H          -7.34870422559109   -5.29566655702658    1.86505770667316
H          -7.21290996295279   -4.70554074805663    0.20527167101144
H         -10.13268605491147   -7.28635464145278   -1.06116105176745
H          -7.24622975912533   -6.93046753595930   -0.09166901659591
H          -7.08042386718472  -12.48973842493994   -4.65090725764802
H          -4.67777706383062  -14.71833314198981   -5.80214214340802
H          -3.95120205001694  -10.67707373198309   -2.21826762159140
H          -2.19461699072773  -15.61613032993257   -5.82408356293077
H          -0.28048375405570  -14.09478878951222   -3.98424481387455
H           0.14364646079530  -15.53167452650738   -5.05857790203476
