104
 SCF done       -199.694880901729          0.000489671403
C          -9.77991306694656    1.09386436724400    1.46752866380106
C          -9.42357648450539    1.78705424131404    2.59632007459852
C          -9.94630940654400    1.51693836746375    3.87848138376801
N         -10.35204045963752    1.35161795377931    4.93937971346937
C          -8.57555793642007    2.91026823512750    2.63330841007624
N          -7.92818884915564    3.85269921231243    2.75001006350371
C         -10.72294923403951   -0.01525204185220    1.42102524603754
C         -10.99466232574049   -0.33118961660347    0.06614945512247
C         -11.86303770616525   -1.32956750533885   -0.30118657415069
C         -12.47988322662583   -2.06611461937679    0.71573171963032
C         -12.19348488046873   -1.75181255024154    2.06716867002116
C         -11.32592367276473   -0.73266094474165    2.43848907376818
S         -13.05657899884558   -2.78762281916243    3.16123829024354
C         -13.78383379399085   -3.61414655626047    1.81082230372081
C         -13.39918556503075   -3.14285821704411    0.60052105412957
Br        -14.98255460529851   -5.01598036056598    2.12461715392075
C         -10.22021822743686    0.56832913617275   -0.80911114655755
O         -10.37042545306104    0.73705628189938   -1.99629350926518
C          -9.33967163880636    1.34921730927960    0.10800363041596
C          -8.35997343376675    2.20511314503046   -0.28480536349793
C          -7.81390028056264    2.30076281723593   -1.59091726082976
O          -7.18713156762671    3.45868376567308   -1.91618335550880
C          -7.66389839843752    1.42130975784480   -2.65201223761811
C          -7.85921976397806    0.02847914514991   -3.09047756734367
O          -8.29525802620287   -0.93225041809977   -2.51546387005247
N          -7.32612176009567    0.01481126453701   -4.37718915905481
C          -6.74384854109855    1.20951080625929   -4.79544533052368
O          -6.20725935517378    1.39034278636049   -5.85786718927352
C          -6.94532889353236    2.10600566443616   -3.65635930925195
C          -6.67391082786978    3.37732692043500   -3.16716676934880
C          -6.02404578147412    4.52640529547854   -3.66217990544710
C          -5.40923127859864    4.69056788027268   -4.86574875859320
C          -4.82833934081960    5.93755374263166   -5.19998646961246
S          -4.94314624290339    7.22031492363704   -4.03508300681013
C          -4.16162883808687    6.37060182696585   -6.35123926853099
C          -3.95009395482554    5.46231706664929   -7.51819403343924
C          -5.20756434819710    5.35973282590892   -8.39622137091238
N          -4.93261201790107    4.47458157164293   -9.51054133766339
C          -3.76472338389561    7.71228991276382   -6.28377241526584
C          -3.08601266477360    8.46146099822850   -7.38360244498611
C          -4.09920818230016    9.25330355487756   -8.22568462539358
N          -3.43118777229968    9.80137265116955   -9.39052811800232
C          -4.12346412807536    8.34149772598310   -5.07653215545183
C          -3.90976051182713    9.66624943039082   -4.66606869061984
C          -4.38389554972936   10.21966320031975   -3.49283341729317
C          -4.20513270099670   11.53483582891395   -2.99601950975818
C          -4.82372616037734   11.78504169199597   -1.80015035580726
C          -5.53188822591989   10.67938809237212   -1.29222175663226
S          -5.37234173782183    9.31967397313833   -2.37107711092334
C          -6.30919598002173   10.46029365997964   -0.16069486719377
C          -6.65610797771778   11.25883234694692    0.94339649012373
C          -7.47201097170016   10.62425191915987    1.84438017354778
C          -7.81885138121479    9.30309794951564    1.48610901180908
S          -7.04456085823551    8.88019841861582   -0.01731472261873
C          -8.64738548645113    8.39796695923381    2.13491361584399
C          -8.92270129405140    7.16918952828874    1.54673927575283
C          -9.70886762850008    6.09099100913370    1.89606863411976
C         -10.37056305103927    5.64059129225033    3.08948875947240
C         -10.12892195615838    6.03117157588106    4.38488091313171
C         -10.82328457725397    5.53228025937296    5.50475713284681
N         -11.37466386507126    5.19671520605130    6.45482732776309
C          -9.12784356583983    6.93625091917939    4.78454609535431
N          -8.32743364364855    7.65096351280969    5.19419562375313
C         -11.26907397366479    4.54417113536452    2.70752307487278
C         -11.09974928670630    4.27545895919497    1.32756727514098
C         -10.05062666361516    5.16334826084956    0.79532522661680
O          -9.56936683539829    5.13566169507726   -0.31933092899939
C         -11.81604937348623    3.31578645488505    0.65699839281232
C         -12.72854864366720    2.55427917754959    1.39411567009827
C         -12.85799637674827    2.79189508542150    2.78209904703330
C         -12.15097478136000    3.78487357887751    3.45321476601257
S         -14.00398410705099    1.70725439859182    3.50874240219655
C         -14.30950695935661    0.98408996714270    1.95221628764160
C         -13.58267405558010    1.51213779849403    0.94034409811539
Br        -15.56508527037969   -0.39747400047441    1.80210853280862
H         -12.05020136096213   -1.54405382193196   -1.34144203675361
H         -11.14025906938964   -0.53304992773469    3.48073432887791
H         -13.75259190193833   -3.53485881341880   -0.33529534229133
H          -7.92003230447099    2.89413062947246    0.42402702286161
H          -7.32549547761375   -0.81714701626419   -4.95003460122675
H          -6.05102441133600    5.35438118897780   -2.96449758164979
H          -5.36510144219686    3.87672381856402   -5.57575608046124
H          -3.70054988685257    4.45834574486095   -7.17441132229264
H          -3.12550422617235    5.82077525083756   -8.13488401058285
H          -5.51784618305992    6.37430127805259   -8.70336840435742
H          -6.02199521910404    4.92388749378285   -7.81218096439833
H          -4.26557060147658    4.89673159481495  -10.14768821433819
H          -5.77853522641770    4.27072094813995  -10.02885739901177
H          -2.56250359796405    7.77747632983787   -8.05018455426675
H          -2.34838283161266    9.15253590292629   -6.97026874931739
H          -4.58423121769392   10.01306081151054   -7.58809283698181
H          -4.87918500234538    8.57404253081866   -8.58034036068136
H          -2.73620658857505   10.48735203406367   -9.11506647618028
H          -4.09478165746860   10.25861849740696  -10.00493914560233
H          -3.33542359924170   10.31051028758670   -5.31740285024134
H          -3.62318993664769   12.26322852967848   -3.53382023156824
H          -4.79024677119224   12.73094344154839   -1.28914089074825
H          -6.30498657830356   12.26997172850500    1.05174168238978
H          -7.83646639646000   11.07320364881777    2.75136425636983
H          -9.08634097892157    8.69598211931998    3.07342400687647
H          -8.50919718980425    7.03920665282702    0.54656481690875
H         -11.67412021663978    3.15224282931744   -0.40022162883331
H         -12.30144065692542    3.93317228628071    4.50934787826386
H         -13.64409170463015    1.18872921287213   -0.08271913121200
