111
 SCF done       -208.901622669223          0.000655568098
C         -15.07585204451122    7.63108726167022   -1.74556297298950
C         -16.15093198701579    7.14454486679227   -1.04879703979454
C         -17.34025531529756    7.86632088722078   -0.81915814798479
N         -18.32853918917791    8.40833538831924   -0.60301676644998
C         -16.20353139765941    5.85712211732406   -0.47601347049737
N         -16.28569802200627    4.81761956670254    0.00371072851297
C         -14.98097577154924    8.95405956542671   -2.35806435181478
C         -13.71883691079800    9.07853642952342   -2.99497565772194
C         -13.33408892990276   10.21717085980169   -3.66113986918621
C         -14.23548749490948   11.28578999524004   -3.70159788496502
C         -15.49204640003014   11.15322105572838   -3.06347498091382
C         -15.88151152638220   10.00089185210732   -2.39008120840117
S         -16.45027278040472   12.59081832554891   -3.23414207528111
C         -15.16924449577865   13.34192518996530   -4.14747553623939
C         -14.07810329450753   12.55702282190144   -4.31731820456532
Br        -15.39088011411235   15.08915492884879   -4.79091906826314
C         -12.96633809833791    7.83288455050184   -2.80486981324591
O         -11.83902881108981    7.57294773938480   -3.21411261013040
C         -13.83197120340978    6.94745212634419   -2.01932709818245
C         -13.43006105208536    5.68773519200222   -1.64817334125716
N         -12.22448031987403    5.23073872471641   -2.00476791755072
C         -11.68688201504247    4.02145731504827   -1.70640370790197
S         -12.54098004955672    2.84869912832953   -0.75612211841193
C         -11.18389860251686    1.77801647265267   -0.90478107507733
N         -11.28069360993465    0.52348953881708   -0.27847894119867
O         -10.33535923655618   -0.23152632637123   -0.37931192354254
O         -12.31527339132885    0.29539833432655    0.32068559688606
C         -10.14818261542487    2.29017522110937   -1.63428616489231
C         -10.41336681261621    3.59125994117825   -2.11276641187876
C          -9.54220914987556    4.40115002461080   -2.90893863725965
C          -8.29778073679969    4.05833485175828   -3.30904095663389
C          -7.46116150812790    4.89742816932802   -4.10894276433930
C          -6.16132816969023    4.46775777584723   -4.45977299826075
C          -5.26732668515227    5.27553613807467   -5.25433737503358
N          -4.07781185955919    4.77042446071669   -5.62817482956175
C          -3.71736214708519    3.58669708967705   -5.20926218284698
C          -4.57263934015795    2.82007424009354   -4.34550367597000
N          -5.75775737011558    3.26236355787870   -4.01791902646710
C          -4.13644371107242    1.56402413193394   -3.85399848377794
N          -3.74788812097876    0.55500132960391   -3.47626114832691
C          -2.46644258381808    3.06142880170919   -5.61993649819656
N          -1.45685603848769    2.61410679716572   -5.92414011919660
C          -5.62031481941194    6.56637362273220   -5.70268363439311
C          -6.92159208347262    6.98841472075159   -5.37159414790617
C          -7.82598603779804    6.17268780110371   -4.58992229306810
N          -8.99148646394540    6.79420893566315   -4.39071544616475
S          -8.95744210619131    8.23492969065955   -5.08276427757795
N          -7.47570777333346    8.16745388078983   -5.68433302873231
C          -4.70937249386432    7.40565964683016   -6.45866659178990
C          -5.21448410396537    8.25146549432632   -7.45900368860491
C          -4.35413725943328    9.04756102153746   -8.17221458518035
C          -2.96760205647174    8.98550486934526   -7.93608739210705
C          -2.46026609607438    8.16476955778791   -6.93806001088551
C          -3.33202568728104    7.39183751243440   -6.20065993069466
C          -2.29825342200338    9.83772509916457   -8.89118863724696
C          -3.26918700124143   10.43941235430665   -9.71063031269147
C          -4.66175767925775   10.03627310343084   -9.27322290149337
C          -5.46793619312341    9.40565660071853  -10.41762034257031
C          -4.73987928862261    8.23046262024710  -11.06031981124349
C          -5.35317605877689   11.30206405786082   -8.71322009142068
C          -6.71523712233393   11.08236770610668   -8.06718221225114
C          -2.89471806044724   11.28109607953331  -10.72810659933332
C          -1.53213496440547   11.51963742077465  -10.97283413508721
C          -0.57806698554510   10.91774956772983  -10.13920937741674
C          -0.94851314930509   10.08741979865501   -9.10283346637532
C          -1.17357141413373   12.37342987584212  -12.07796861900282
C           0.05515423316074   12.52401430433395  -12.61210847453983
C           0.34827553045274   13.37148900922605  -13.71604687469854
S          -0.85997542894626   14.40556415637531  -14.45070531818268
C           1.55665033129334   13.52850634704748  -14.37048607489592
C           2.85815156884639   12.92378876863649  -14.20517407880817
C           3.77670503770338   13.35388235248466  -15.06721583080335
S           3.09263692965862   14.59101991820113  -16.20941736900494
N           2.90916997883853   14.09437435287477  -17.63806633922199
O           3.72971341919962   15.86573830870319  -15.95177210737414
C           1.49301357551184   14.45963406610592  -15.43046658454177
C           0.27575323344507   15.03672823153975  -15.62660179162873
C          -0.07577155467344   16.01118925563399  -16.61865005620117
C          -1.28008660346816   16.56145584168916  -16.74499364647966
H         -12.36766267620975   10.28343066625759   -4.13594625427951
H         -16.84909933760940    9.94941073277610   -1.91988483320937
H         -13.19855806322754   12.86197296229078   -4.85412233522061
H         -14.05790321280111    5.02790948403266   -1.06332064804872
H         -11.66752017529150    5.90208617641423   -2.56319630877289
H          -9.24241553504037    1.74004205677761   -1.81123471231693
H          -9.91300280288473    5.36785380438421   -3.21643616580251
H          -7.85761489336505    3.11118462647922   -3.03470085317112
H          -6.26936262973701    8.23369862018707   -7.67670627461925
H          -1.40022619896597    8.13089535455736   -6.73786894888151
H          -2.94992608716176    6.77488174017184   -5.40360257902834
H          -5.66496098146474   10.16921605813438  -11.17298405764591
H          -6.42695752843067    9.06039813751453  -10.02987348679213
H          -3.79045390320015    8.54948041750655  -11.48449061179027
H          -5.34569797639367    7.80394571670814  -11.85649323370146
H          -4.54156228284898    7.45388482411699  -10.32469600661950
H          -5.45740178782902   12.01420950311502   -9.53508803476861
H          -4.68262632419639   11.74853437809506   -7.97416706175381
H          -7.42275443044282   10.65425378097547   -8.77237972108940
H          -7.11051334196338   12.04015427453548   -7.73495439540355
H          -6.63837014235253   10.42889581986500   -7.20273079645882
H          -3.63350681718345   11.74750826658568  -11.36399083613925
H           0.46949657756773   11.11722612843549  -10.30253355436292
H          -0.20021429647929    9.63511974683800   -8.46958876456628
H          -1.99057316639385   12.92107760136152  -12.53273417449746
H           0.89937854180754   11.97285769824807  -12.22276661241411
H           3.03841541767224   12.18362158935983  -13.44029032249083
H           4.80165675340085   13.04822658713042  -15.13841501125109
H           3.63790668950460   14.35192264844492  -18.27967019564003
H           0.74033326805762   16.27294480384009  -17.27899577743999
H          -2.09071225515241   16.29492033470209  -16.08577915159880
H          -1.49113341933092   17.28813307059176  -17.50863147176235
