85
 SCF done       -160.829968604164          0.000900484080
C          -8.16288575950447   -0.31281566793866    6.41460335558363
C          -7.01333367405884   -0.84064617603284    6.97444688132612
C          -6.82330570577493   -2.20679252311776    7.23483404639074
N          -6.62143387998961   -3.31565720400621    7.46372651724031
C          -5.91243725706339   -0.05965380874944    7.36473764630935
N          -4.98846038942667    0.53860724444177    7.69601202522790
C          -9.32266880429102   -1.09216835950914    5.96602807070716
C         -10.30994739119498   -0.19646003613170    5.49379187192699
C         -11.49416152518192   -0.61060677008585    4.94049176198642
C         -11.71403518443519   -1.98847291239133    4.83488539250672
C         -10.72669558010522   -2.87807231436760    5.31179775010721
C          -9.52919500375640   -2.45475095873059    5.88202250084746
S         -11.20865241096865   -4.53582739862699    5.08940219365560
C         -12.71194563022951   -4.01000922436096    4.37797746552522
C         -12.84384424983251   -2.66659034989666    4.29852838630144
Br        -13.98306725788319   -5.28043582771810    3.83973387295643
C          -9.80693788244495    1.18568762732652    5.63195532597747
O         -10.45125535174685    2.20672525593932    5.50367934204230
C          -8.39515757137070    1.04687743509085    6.06529859031863
C          -7.52195065837406    2.14677896033333    6.08557084404722
C          -7.61155068934254    3.15536708023514    5.14645165450753
C          -8.22693443372450    2.97535028193284    3.89759809676603
C          -8.74387030187309    3.92108946383134    3.01361379831296
C          -9.42281737803373    3.37612147170236    1.93868460410266
C          -9.41527353400891    1.98182888426573    1.92688880336636
S          -8.45521094953336    1.36886913449980    3.23890116037729
C         -10.15697167304113    1.05776175989335    1.17437969790624
C         -11.10905479901787    1.25492860827317    0.17560955316711
C         -11.74742272077888    0.09320822158962   -0.21137702546096
C         -11.31100147812674   -1.04825788034809    0.46460694023178
S         -10.05118830274102   -0.62828161231638    1.60082490339026
C         -11.77612539572342   -2.36238748638505    0.34804384159077
C         -11.25349089257054   -3.41234734945846    1.05971818231017
C         -11.71971528479221   -4.72719210125083    1.03231710587281
C         -11.18290292748406   -5.81352172307894    1.73735026474207
C         -11.87988168990423   -6.98431687402908    1.57763562754704
C         -12.99557102761957   -6.86168327857258    0.73551042188145
S         -13.12467312024935   -5.22759675232153    0.12857866963504
C         -13.93030695935261   -7.83571734765695    0.41097982348020
C         -13.99831184531539   -9.16170590914033    0.88476923736199
C         -15.06005760476487   -9.86523806383679    0.40454127933380
C         -15.89777921168635   -9.14120549897567   -0.48923594041986
S         -15.25024716648706   -7.51492030064265   -0.68103896460078
C         -17.03301361726608   -9.63997489111920   -1.06121567237463
C         -17.95283798401287   -9.01803429660496   -1.96434644040730
C         -17.72575663267276   -7.81130039360990   -2.62901714016273
C         -18.69358306196477   -7.28416936483290   -3.48307480295746
C         -19.87451957859390   -8.01570106493570   -3.65631130143621
N         -20.09303132261089   -9.16265635214339   -3.04069161060485
C         -19.18477623565505   -9.65078068713390   -2.22982745514582
N         -18.38753390364031   -6.09419568634992   -4.12041927493273
C         -19.12010515200084   -5.26696988430537   -4.90857379972197
S         -20.82752249482814   -5.42094068393666   -5.14625705418876
C         -20.81849340647628   -3.98017489067401   -6.11856826460303
N         -22.02837403789336   -3.55979735657761   -6.66616804494759
O         -22.02422491608441   -2.55015980869952   -7.34935069205210
O         -23.01169514042024   -4.23941729145561   -6.41563487144538
C         -19.57301981636364   -3.42562350936457   -6.24393385815125
C         -18.58204525398221   -4.14642248646639   -5.56017385296382
C         -17.17226210947361   -3.80229193317001   -5.54958311264154
C         -16.66225030665831   -2.65266223451281   -5.97673555348945
H         -12.22322218144577    0.10204616854816    4.58779984089730
H          -8.80800987135543   -3.17555850370150    6.22986184301066
H         -13.70482290114064   -2.16997399897664    3.88955936350416
H          -6.77254168645841    2.22177710863769    6.86233940876209
H          -7.15314114786861    4.11478644221181    5.34257884696126
H          -8.68569560051411    4.97674209261208    3.21132983213803
H          -9.93927433869080    3.95936026805303    1.19707732468740
H         -11.32575452352828    2.22672612403845   -0.23000675928167
H         -12.52317358139725    0.05304186321488   -0.95563869103632
H         -12.59624639126074   -2.54161176217582   -0.33538979629857
H         -10.40986625961746   -3.22016548332907    1.71225674318596
H         -10.30524166753440   -5.71163090351740    2.35097742696876
H         -11.61665762534027   -7.91139793832912    2.05251989759920
H         -13.27447431955942   -9.55577430469924    1.57439854759413
H         -15.27769511722165  -10.88638100251788    0.66192574172114
H         -17.29453165402087  -10.64922697808677   -0.76772948802975
H         -16.79008023627736   -7.28644516374559   -2.50733933641695
H         -20.66288988671990   -7.69370220951771   -4.31825537656632
H         -19.43369333557705  -10.58979402929590   -1.75457741688797
H         -17.44486891703878   -5.76775525372612   -3.94019922401530
H         -19.39905350563302   -2.54059748690165   -6.82686851692038
H         -16.49537812838665   -4.56197006736907   -5.17798858349724
H         -17.27444984207413   -1.85480274541924   -6.35655921522269
H         -15.60199175699346   -2.47240913965054   -5.95609518692822
