97
 SCF done       -182.893565713919          0.000933707611
C          -1.29398668475152    0.06899041330692    2.93544945198911
C          -0.70396823101662    1.27312357607181    3.23183501434848
C           0.20817094043168    1.46878134872107    4.28794561978934
N           0.95766860635568    1.69315196182652    5.12885221644445
C          -0.95452962094292    2.48387918064837    2.55438043986679
N          -1.12462689389218    3.51405576265378    2.07477735528122
C          -1.15847593998302   -1.15661492620864    3.71426315848593
C          -2.02818972240318   -2.13400475752815    3.17021755235172
C          -2.15317875209529   -3.39170865647278    3.70758473216354
C          -1.37696952599469   -3.70279681320583    4.83064314543820
C          -0.49393547961009   -2.72770062367782    5.35227753311155
C          -0.37532216199588   -1.45193747551686    4.81358272823194
S           0.38374644722509   -3.32650521338205    6.72409701999499
C          -0.45005793127527   -4.84825160664095    6.59627228551804
C          -1.33380906000814   -4.91413077871254    5.57162675580417
Br         -0.07341537268341   -6.21660580352822    7.81970134637587
C          -2.71808144057962   -1.57484792152722    1.98786892966928
O          -3.46221583931163   -2.17754389866233    1.23733695216067
C          -2.23503764425942   -0.18563349815036    1.86718250609807
C          -2.45674941843292    0.65120269140061    0.79788169223165
C          -3.45780986498655    0.57859747340272   -0.18257325485530
S          -3.09943032708292    1.29758886811029   -1.73424950662679
C          -4.62927572067241    0.81967379271286   -2.33234122997187
C          -5.41044742937297    0.18104222243683   -1.41826199258805
C          -6.79346389804296   -0.26274435597236   -1.76307119415066
C          -4.76162187286567    0.04661397053371   -0.15047761173851
C          -5.31797717567376   -0.41106966801871    1.07679572552317
C          -6.43529615067929   -1.16471916642365    1.26362431141313
C          -6.89871389775737   -1.62407088595047    2.51927294756456
C          -6.16310777800770   -1.70663620716749    3.66752238026800
C          -6.65420860366887   -2.20366399862006    4.88283362470990
S          -8.34952395447239   -2.51137689175685    5.13182142996535
C          -8.11490734162715   -3.09267583488253    6.75683444213900
C          -6.73864603279353   -3.06321138096787    7.08748485174651
C          -5.92344835015874   -2.54500110260507    6.03945738678838
C          -4.53389958002576   -2.44272141319004    6.22113331285204
C          -3.99201713420086   -2.85187249986356    7.40722271587859
F          -2.66271020002829   -2.76262502868799    7.59945649090743
C          -4.79575456189900   -3.37168987247595    8.43997988954247
F          -4.21360980333413   -3.76914996873358    9.58413496345707
C          -6.15232871739373   -3.47630289045087    8.29235994191680
C          -9.18203939304893   -3.49179833962054    7.55745283980843
C         -10.50554360310213   -3.39188775258298    7.18516588666921
C         -11.57648694196613   -3.77184318758150    7.98120057852718
C         -12.90393295205471   -3.59886923318094    7.62862855768289
C         -14.03857251823674   -3.96053517545354    8.38096399921654
C         -15.22957366045701   -3.63887529448971    7.79132444837083
C         -15.09327761147340   -3.00053600835155    6.54442256985590
S         -13.40041462488366   -2.83589605808742    6.13131027989195
C         -16.09128120307383   -2.52491570241512    5.70940905807084
C         -17.48605705735475   -2.54741805861114    5.93172856929456
C         -18.20405040667799   -1.98824733818682    4.92140684309979
C         -17.42299149582482   -1.47565953804749    3.84716159141966
S         -15.72613718800466   -1.75214123178073    4.18592504988233
C         -17.97190012385738   -0.94055931453547    2.71448420545890
C         -17.40603020785393   -0.41684375670242    1.51618786538120
C         -16.09667331000299    0.05881619919856    1.34054969494819
O         -15.37015080652967    0.10729129903585    2.47945653378147
C         -14.00069181750760    0.44091352047087    2.53614324221512
C         -15.64524103039432    0.51290752427148    0.05691441582530
O         -14.34652640944861    0.92861615424474   -0.01576422054361
C         -13.85190878361896    1.40191831439958   -1.24560460444628
C         -16.48443263176450    0.53350412409228   -1.03211566998082
C         -17.81338140461493    0.11740185393130   -0.87831424413758
C         -18.27978824094850   -0.34900542079404    0.39353149634299
N         -19.55957084699437   -0.70310799858455    0.35832250792496
S         -20.12147996914182   -0.46179552615044   -1.13660197884626
N         -18.76575438000825    0.09517292521116   -1.80806144510628
H          -2.83295161128013   -4.11193090790437    3.27916669494966
H           0.30643696393662   -0.74069534440723    5.24874340833937
H          -1.93291554469025   -5.77838743325488    5.34908739222013
H          -1.73860054144444    1.44896290338026    0.64380096375556
H          -4.88335053791935    1.04275277469205   -3.35099977665604
H          -7.05966039197631    0.10185682462690   -2.75278513252805
H          -7.51177763012633    0.12584688977137   -1.04333103295077
H          -6.85568668849349   -1.35003340652855   -1.77260281763385
H          -4.77904654074384   -0.08820778907962    1.95804401372409
H          -7.01895058126953   -1.48152635297575    0.41529266749225
H          -7.91016601639452   -2.01207698764423    2.54909459594667
H          -5.11710923994440   -1.43716342636501    3.64849636272079
H          -3.89220299805927   -2.05370316227108    5.44777951543623
H          -6.74401308214885   -3.87608769344559    9.09914367624838
H          -8.94715052862220   -3.88022843613192    8.53876521416112
H         -10.73038714223877   -2.97230242216608    6.21160645857610
H         -11.37849229931547   -4.22205899868707    8.94526722201008
H         -13.94732726706568   -4.44603706920530    9.33669395338476
H         -16.19188497583061   -3.84180037720670    8.22567338768989
H         -17.91805462949847   -2.96371038971814    6.82404552504017
H         -19.27728120385531   -1.91581352104871    4.90685016343600
H         -19.05453122269426   -0.98501893766411    2.67217812600000
H         -13.72687717853826    0.29849862913515    3.58170145317378
H         -13.82693889223533    1.47879081028271    2.24881165119280
H         -13.39593496794598   -0.21920756836525    1.91290524142497
H         -13.88277687973988    0.62650290705628   -2.01671659161610
H         -12.81653919648655    1.67768917563053   -1.05126011470172
H         -14.40390178013013    2.28188656639769   -1.58887553722690
H         -16.16273665662773    0.87257764117634   -2.00084081498826
