113
 SCF done       -198.241042518043          0.000712986497
C         -11.64989208814215    0.84255928657094    1.40025490163795
C         -12.13426239130391   -0.34197530450636    1.89218599215087
C         -12.98048741468007   -0.44848993482201    3.01433645110872
N         -13.67140168196672   -0.59327600033318    3.91957703020961
C         -11.84481334200323   -1.60350948197333    1.33386940445160
N         -11.63297535591659   -2.64859131121803    0.90910532281277
C         -11.91984951888182    2.17064884656961    1.94693029506310
C         -11.24718799923772    3.13984901282144    1.15774825505640
C         -11.30684372019772    4.48607761770324    1.42593055192281
C         -12.06504823051806    4.89839272249420    2.52665211067253
C         -12.73181968764712    3.92551448156874    3.30874157530789
C         -12.67238817680249    2.56318126267944    3.03625930030973
S         -13.60751396248915    4.65145142645430    4.62077319757127
C         -13.07342224340967    6.23063862006144    4.10955851404590
C         -12.28029830951330    6.21709944968789    3.01167433863655
Br        -13.61203655051558    7.74706877733644    5.07232342911715
C         -10.52338519229999    2.45328794014106    0.08240897088386
O          -9.83043805941391    2.96249646696933   -0.79569745489919
C         -10.78508804395791    1.02326098759421    0.25813734903963
C         -10.23582030045091    0.08527770912351   -0.58488349566773
N          -9.44205658365139    0.47698505678999   -1.58528239001138
C          -8.80949274685826   -0.30131128103549   -2.49835726269061
S          -8.98619219525419   -2.02851713906080   -2.50632120784911
C          -7.90680922714549   -2.10350337424674   -3.85994452476328
N          -7.61488948453109   -3.36460971102761   -4.39858746015660
O          -6.85502369178532   -3.40918292556671   -5.34764479767754
O          -8.14893380413803   -4.32388875408272   -3.87192034510149
C          -7.44584407166796   -0.88162617338302   -4.26943570375689
C          -7.95381224347597    0.18212488728516   -3.49764287094753
C          -7.65982313591853    1.57880162286401   -3.68506286281206
C          -6.70552216518549    2.05127189081630   -4.50764338316345
C          -6.37848627919352    3.44046230563028   -4.72981023868607
C          -5.20851606396543    3.73743899826157   -5.44802263924067
C          -4.86028737392353    5.04428679185934   -5.67892894135171
C          -5.67645004579946    6.09263278354917   -5.21886931492663
C          -6.83800424814918    5.81293625102832   -4.51238331098920
C          -7.17626487205041    4.49707745533590   -4.26981466609459
C          -5.08054836131157    7.34906822723635   -5.61917439184760
C          -3.88997054095233    7.07671931416398   -6.31478055677557
C          -3.65168574723247    5.58760578839746   -6.40338831654721
C          -2.34684752869576    5.18514823832312   -5.69052204897895
C          -2.31250797528930    5.61883816386320   -4.22995431751274
C          -3.60820715805722    5.11194470366078   -7.86710115138060
C          -4.86919540954709    5.47303969294056   -8.64297800908124
C          -3.12013811793326    8.10055208803718   -6.80714804195832
C          -3.53019650856837    9.43219987941990   -6.63252563685832
C          -4.71935310154902    9.68587334923738   -5.93556912125033
C          -5.49138263243881    8.66086633403820   -5.42726086436105
C          -2.69463558396232   10.47471913673485   -7.18239831477130
C          -3.01397862852647   11.77655368265447   -7.29099368004446
C          -2.17855535156646   12.80505190837566   -7.85045909857580
C          -2.66628542281080   14.10619840976078   -7.98707820796014
C          -1.92923630099445   15.18153606494053   -8.53562577548429
N          -2.61214163590983   16.36347180878907   -8.56711906649583
C          -3.78814796829699   16.25126913917284   -8.09461352146377
S          -4.25079281987827   14.66682707724042   -7.52898773914793
C          -0.60215568080245   15.01009568910401   -8.97087073820020
C          -0.10602532978476   13.71337855835309   -8.82798364718279
C          -0.85475570864204   12.62974889308297   -8.30083023414242
N          -0.17952618795706   11.44463426446869   -8.28799666636595
C           0.99548144844041   11.55230369749048   -8.76769677264590
S           1.46846549440620   13.13809369219657   -9.30667672089457
C           0.16137614726073   16.10565168282173   -9.52432479236735
C           1.54505337606819   16.24693499605407   -9.53184152981402
C           1.87485071888273   17.47028625206561  -10.17776677053380
C           3.08898464845748   18.06893385578708  -10.43907929777332
C           3.07353195395515   19.29742406755828  -11.11079162459448
C           4.10324627606570   20.14703143056508  -11.51954876255443
C           3.54462705463654   21.28003069034364  -12.16870220646788
C           2.16189497084104   21.13609051879525  -12.16448505015281
C           1.82928131630020   19.91291563535744  -11.51412768221405
C           0.61708906506267   19.31603210404002  -11.25114081415453
C           0.63157017242945   18.08552340593156  -10.57670332093126
C          -0.40099494574802   17.24483154283614  -10.16535794379059
C           4.33190643311821   22.36042186349216  -12.71626509217333
C           3.84862245224531   23.43915523785152  -13.32543741229758
H         -10.78410632337282    5.19935918980945    0.80820372351881
H         -13.19766093747060    1.86189726159613    3.66274404871232
H         -11.86328960717291    7.09966012663212    2.56203145965708
H         -10.41471522374286   -0.97629064499142   -0.47345617303929
H          -9.30951145962591    1.50484312118667   -1.62873800790386
H          -6.77809018701935   -0.77814465877830   -5.10438754062834
H          -8.24860726968887    2.27494462064670   -3.10585220012115
H          -6.08837180599893    1.34872889870255   -5.05178864275442
H          -4.58658898598210    2.92892506477864   -5.80583955058516
H          -7.47111292224098    6.61222145313889   -4.15706744813872
H          -8.08312265507718    4.28418121866119   -3.72534836056721
H          -1.50634900803648    5.63659169715378   -6.22151102331121
H          -2.23556377846275    4.10026211160228   -5.74950296838221
H          -2.40042941379823    6.69992477586825   -4.14853009408790
H          -1.37459767084654    5.31419135298601   -3.77129910733300
H          -3.13056375039112    5.16551711652361   -3.67424280381713
H          -3.47175094660979    4.02840668522948   -7.87990920201790
H          -2.74163012262950    5.56297774130693   -8.35478225640279
H          -5.74552818988195    5.01775773302450   -8.18667070606284
H          -4.79182438201700    5.11907413431438   -9.66837208794507
H          -5.01311452438013    6.55107261312570   -8.66074949297991
H          -2.20188483284477    7.89809285984018   -7.33980873844764
H          -5.03583141187131   10.70581606004652   -5.78052919943759
H          -6.40200874292221    8.87872821563058   -4.88890854302249
H          -1.73206866095796   10.15488858830271   -7.55522215271390
H          -3.98212261014930   12.13119717736184   -6.95973402451859
H          -4.48434750157575   17.06470894417551   -8.03213385725776
H           1.68309687185644   10.73243015812280   -8.84235557940960
H           2.26316579161156   15.58022921796935   -9.09236746585703
H           4.02213810633926   17.61081757749114  -10.14170329392010
H           5.15564211509786   19.97981869711522  -11.37065185122760
H           1.44721773426768   21.82242147418403  -12.57903117552264
H          -0.31749870526261   19.77266466931317  -11.54575179528202
H          -1.45204105146926   17.40889115267927  -10.30751364749425
H           5.40318345615739   22.24772555685248  -12.60190906026496
H           2.79219511825896   23.59451751210767  -13.46166339700758
H           4.49672710670486   24.20729818165356  -13.71009696388782
