113
 SCF done       -191.766841404797          0.000756133071
C          -5.66856513659703    6.15146303519543    5.49338390028837
C          -6.61036712737461    5.27696397825117    5.97859185362286
C          -7.09303750851092    5.28511547908705    7.30266627271167
N          -7.52024964836738    5.23010293699179    8.36710542364524
C          -7.23809438685431    4.26442556973051    5.22766421785719
N          -7.79410006821586    3.43030637379251    4.66529421591246
C          -5.07508763183601    7.25087386879299    6.24878365816247
C          -4.19661527111884    7.96385703702200    5.39829179267877
C          -3.48777586393683    9.06251472322779    5.81581904080981
C          -3.66092688997966    9.48622831687665    7.13810706821221
C          -4.54040156735767    8.76831545917441    7.98150959003513
C          -5.25248443624478    7.65207557375483    7.55963730152639
S          -4.60440832865110    9.46001276248579    9.57516888424397
C          -3.46527170384467   10.68791080980893    9.09120453195615
C          -3.05645384525180   10.58731858420487    7.80428669083912
Br         -2.92256487573025   11.98706935687044   10.33081542619621
C          -4.17736753174255    7.32273392240650    4.06762025322978
O          -3.43960628350687    7.60668516984578    3.14381846813455
C          -5.13784159233642    6.20964939683510    4.14963686708718
C          -5.38695059975619    5.29648320602030    3.15483795187024
N          -5.08373997402921    5.41434161354627    1.85558376701805
C          -4.87540651661878    6.60501278128179    1.14783677271129
C          -5.62496871848998    7.73290390843835    1.31137515346424
S          -5.14205973493085    8.98199692206143    0.25437393249254
C          -3.93107516029431    7.98479102151386   -0.44735545143502
C          -3.87948155361079    6.74523202074470    0.12406824654807
N          -3.04183496658978    5.71147617461354   -0.23810377695760
C          -1.76940923905250    5.83162742368041   -0.76999456636153
C          -1.01195879433416    6.93492555455880   -0.76074801078743
C           0.30413567802207    7.05210217430595   -1.35314120818083
C           0.74459501403467    6.19244807674417   -2.36953721852553
C           2.00410451055324    6.34231885446611   -2.90353516328156
C           2.84980315466683    7.35876290805663   -2.41757586323191
C           2.42181985883032    8.22375444182752   -1.42073924157761
C           1.15276973522459    8.07007915829012   -0.90411114634452
C           4.10521939621249    7.30439768139711   -3.12799422621991
C           4.04258610931689    6.25705337925430   -4.06076420074366
C           2.69612120166470    5.55675369720338   -3.99843402325561
C           2.98187644552896    4.08967333705422   -3.60839119491409
C           1.78650933165388    3.20356058495154   -3.28515675913461
C           2.03980762835193    5.70508293425976   -5.39183813303422
C           0.51826278351774    5.65461308203349   -5.46385265160551
C           5.10674992593291    5.98822765712003   -4.88308000490028
C           6.27904330223196    6.76347619767053   -4.78567703317404
C           6.32414895144134    7.80505155988028   -3.84285445338115
C           5.25342172257241    8.08007798854347   -3.02111430664915
C           7.36761272540424    6.45084783668369   -5.66577759410534
C           8.59977464214626    7.02850949916838   -5.67956374757949
C           9.66611783831547    6.72554002271461   -6.55219466282943
C           9.71599525454465    5.86255566471532   -7.62058860421708
C          10.86475680635695    5.63469032971219   -8.42143166825710
C          10.68805675852848    4.74275699972012   -9.43594821170435
C           9.38332171988252    4.21114722442810   -9.50154427046676
S           8.39079351582495    4.88456549083782   -8.22902334423128
C           8.86802285059028    3.28388433374656  -10.38757238735357
C           9.50464855793950    2.60024132063002  -11.44044313254577
C           8.69034232558712    1.72647630032043  -12.09847025409787
C           7.35973573007214    1.66131563356996  -11.61062203708769
S           7.19417014183139    2.78195506505496  -10.27495573931472
C           6.39770210267837    0.85463825961917  -12.17940102377313
C           5.04171473279920    0.60096577969144  -11.93376567972841
S           4.25711540613042   -0.35307692836987  -13.17489796897774
C           2.73333091006286   -0.28987851479535  -12.41166741637697
C           2.78179712794793    0.41631697401967  -11.22966564292640
C           4.09609079624620    0.92260116191439  -10.93098481017370
C           4.26609538555008    1.59979955711573   -9.72679570410457
C           3.20404458262712    1.82840610587934   -8.86194235375333
C           3.54521552781646    2.55752034461267   -7.70790770573298
N           3.92191712882269    3.16522449505018   -6.80685183677017
C           1.89555187270791    1.34750458493387   -9.17519321346331
O           0.78204581450190    1.50145533190702   -8.41258124060822
C           0.83198678921027    2.21267970966473   -7.20033455220254
C           1.71280685274394    0.64807841897658  -10.34250114489633
H          -2.82403547625427    9.58226071765852    5.14286452991697
H          -5.90718831705170    7.13765649053650    8.24281059694654
H          -2.35729658855194   11.26010711386175    7.34216770845567
H          -5.85559396419182    4.35620963036167    3.41756317864554
H          -5.17990238735168    4.58025990509927    1.29052733368817
H          -6.42329916827672    7.89025629062423    2.00849266815038
H          -3.33286095723743    8.36833247308880   -1.24676354087827
H          -3.26475411213550    4.80699810542839    0.14882166842272
H          -1.41002590330043    4.90457153368284   -1.19704821875487
H          -1.36688239724700    7.80419086850903   -0.22600731040356
H           0.07134788360342    5.43696328179206   -2.73861330997406
H           3.07048920598272    9.00800328599646   -1.05922039923394
H           0.80358655273345    8.73626332803801   -0.12803601330570
H           3.63955582737596    4.10735497083157   -2.73433427715537
H           3.53748198263876    3.64028617727635   -4.43262436639749
H           1.24499657131071    3.57515892597829   -2.41944457183867
H           2.14206969063303    2.20104065569875   -3.05284116662163
H           1.10762999244030    3.12881132458348   -4.12984095084325
H           2.46548626281054    4.93071282813721   -6.03248179301170
H           2.35200941132588    6.67138515673070   -5.79831794019625
H           0.12083962224489    4.71703735783231   -5.08711860831827
H           0.20793057009731    5.75792550736744   -6.50264292110700
H           0.07785081868687    6.47308549209604   -4.89992912763458
H           5.05863965145288    5.18772688698532   -5.60609812623284
H           7.21335985687206    8.41111972372685   -3.76139723096164
H           5.30620576386263    8.88746483728772   -2.30546289367950
H           7.15610881272982    5.65846459635284   -6.36948138983409
H           8.82272009465558    7.79594146179082   -4.95032141681235
H          10.59264374580698    7.25545820982510   -6.36327732047387
H          11.79249536274215    6.14057704781200   -8.21726163911185
H          11.45454344879169    4.45718394726018  -10.13410093626030
H          10.53942118065406    2.76384319577019  -11.68305309303804
H           9.00689464909725    1.11675574852388  -12.92668120522704
H           6.76866067274380    0.31766604461299  -13.04746304948390
H           1.88650355332349   -0.77006960646185  -12.85815682284499
H           5.23542690054993    1.95602543290510   -9.42818237249501
H          -0.18545343087273    2.18568454251254   -6.81070570385566
H           1.13047916048956    3.25337493621100   -7.35333900082933
H           1.50723590591652    1.74187024258318   -6.47986861424722
H           0.73017585837943    0.26995363437923  -10.57419905227052
