85
 SCF done       -183.270458235743          0.000984297601
C         -17.64482075798412   -8.23315194870745    5.00535393343680
C         -16.88748988565325   -8.94365855649610    4.10348491546693
C         -16.64103644374863  -10.32785174666807    4.19915325014483
N         -16.40939880241915  -11.45277058333146    4.21841064286843
C         -16.28036845418625   -8.41693167232983    2.94591358160356
N         -15.77001115900190   -8.07316417373905    1.97525511564979
C         -18.31726723835971   -8.80120869532567    6.17237655984065
C         -19.06457114198538   -7.77930784327495    6.80707205305245
C         -19.81085230984643   -7.99899143875900    7.93819481265115
C         -19.81889581427813   -9.29154099559357    8.47387296964195
C         -19.06743210570470  -10.30546485404603    7.83570969633370
C         -18.31375581364833  -10.08272466963915    6.68896000497896
S         -19.21175933989721  -11.82575700435803    8.66548536462573
C         -20.26674401584236  -11.08740952174100    9.84132255238942
C         -20.50024816314863   -9.77136934479007    9.62609383103780
Br        -20.95978407994306  -12.12365312673131   11.24304502384310
C         -18.88527911734065   -6.51275400138107    6.06755737261953
O         -19.40057880302313   -5.44505533014063    6.33653247082128
C         -17.95514034167100   -6.82550011475964    4.96371162603192
C         -17.44622337775409   -5.89539080302703    4.08274237086257
C         -17.77974475147032   -4.54261675127078    4.07048241554754
C         -17.21447415975242   -3.63762345470912    3.19635884717095
C         -17.49683538888301   -2.25214372181384    3.12006396729625
C         -16.77800516662153   -1.58753990394390    2.17313447513152
C         -15.88622914242368   -2.41635031953908    1.45476600773212
S         -16.00337377203002   -4.07149757830427    2.01171499804542
C         -15.00071925678395   -2.05236885785619    0.46008838348800
C         -14.75473816633190   -0.76147519117718   -0.06739631730023
C         -13.79156262192494   -0.73208584464589   -1.02318017678393
C         -13.20474470329888   -2.00023640115690   -1.30377366805276
S         -13.96916983903233   -3.23370985064577   -0.30912801444112
C         -12.25215172631980   -2.21228787735590   -2.25658687164260
N         -11.60307177705440   -3.37407549850365   -2.55935292378294
C         -11.32180745737406   -4.43412389135375   -1.75115698271683
S         -11.18526368958679   -4.26829780681159   -0.03088245849155
C         -10.59425961206466   -5.89558109742780    0.06884013923778
N         -10.31973694831560   -6.38725452160560    1.35090554449369
O          -9.90314921631910   -7.52366587916154    1.45035749998395
O         -10.51848820150385   -5.61613116816084    2.27548729682625
C         -10.48228726914785   -6.51271483020229   -1.14606367264034
C         -10.90675621350346   -5.69426828142136   -2.21086584330928
C         -10.89462773321397   -6.14823431805065   -3.57450851798376
C         -11.64857314508270   -5.65917486784247   -4.58173630888975
C         -11.61067150948405   -6.08643549404426   -5.94560184623989
O         -12.57929104644982   -5.61238616915188   -6.77670575884343
C         -12.37575346937093   -6.09741599466120   -7.99250504972304
C         -11.24619098985891   -6.87986811960374   -8.01274043960830
N         -10.65882179646885   -7.42223331250691   -9.18955657914874
O          -9.45280861788763   -7.53467819382108   -9.20786594174452
O         -11.40656499873946   -7.68703239755924  -10.10460327139792
C         -10.73932628286015   -6.88885575403319   -6.67601720944420
N          -9.63994541608503   -7.55696461788001   -6.18962389615277
C          -9.14750561794734   -8.73490246161937   -6.60374137302326
O          -9.71308473098162   -9.48398934432047   -7.53407019366520
C          -8.93739307551142  -10.62144315491896   -7.67331483559138
C          -7.89240323017201  -10.58506142155654   -6.79946570741655
C          -8.00425076418526   -9.35889505448089   -6.07401200059654
C          -7.27066299922332   -8.78298166270357   -5.00804210733712
O          -7.56003196412881   -7.72579233494528   -4.45564541741127
C          -6.05000624529021   -9.59566461925020   -4.52606912267344
F          -6.42107678762477  -10.80376933752754   -4.06649975422085
F          -5.17839761249510   -9.81942214872110   -5.52333616514593
F          -5.38585201719462   -8.98595032630400   -3.54797236255570
C          -9.30177253141736  -11.60376806888308   -8.65807334449867
C         -10.32269857599679  -11.48107510462455   -9.50210628860605
H         -20.37097630010172   -7.19901575437042    8.39658996692082
H         -17.75550517136766  -10.88911254813654    6.24383523090663
H         -21.12501537610790   -9.16180369513797   10.25313326250203
H         -16.72300022338100   -6.22486289199852    3.34662026194504
H         -18.50884166981707   -4.17725211045770    4.77925122179817
H         -18.21984677627635   -1.79502743081050    3.77180945299526
H         -16.86091496568875   -0.53366508167936    1.97733149442548
H         -15.28977392759111    0.10345304437397    0.27964154474385
H         -13.46493398795894    0.15697941982970   -1.53233586017685
H         -11.99171295602964   -1.37935817642453   -2.89600748290484
H         -11.17942469905623   -3.42488527161830   -3.47905635515282
H         -10.13029757340060   -7.52218983326643   -1.25673737867406
H         -10.24048717959774   -6.98942474809207   -3.74770884738336
H         -12.41282349896198   -4.91839723843027   -4.39006372500728
H         -13.04651345998179   -5.82297384449620   -8.78275680869236
H          -9.09943918263348   -7.15989825160613   -5.41388470795780
H          -7.13333364259035  -11.32973613043901   -6.68227006385308
H          -8.66004411378051  -12.47276011605191   -8.67418208313870
H         -10.96013863868797  -10.61352214070789   -9.50258694328470
H         -10.54559925442726  -12.24441777002145  -10.22573948050467
