95
 SCF done       -165.679281062367          0.000222543057
C          -4.99981756558440   -3.75694549996687    7.84086744131602
C          -4.28234014546893   -3.46302337498869    6.70232464199724
C          -2.89584643531677   -3.66479956069667    6.57404849556481
N          -1.76114417221130   -3.76777977267124    6.42428744414650
C          -4.80819288641070   -2.89063779354086    5.52928974192657
N          -5.16357032346902   -2.45475727115665    4.52634563025044
C          -4.46635659635425   -4.43231338006887    9.02287952161805
C          -5.46480283378685   -4.43967675759988   10.02653492409411
C          -5.27406130039711   -5.00750252951510   11.26134147624336
C          -4.05311800444427   -5.64578399091239   11.50302723952351
C          -3.07884583040044   -5.67338588473589   10.48005454913964
C          -3.25574939452234   -5.05730776982434    9.24578865267672
S          -1.66803125835366   -6.55829373358976   10.97189133096623
C          -2.38732529928838   -6.85190733739679   12.53130642950522
C          -3.62494988444306   -6.32508256861974   12.67585291870170
Br         -1.42965670662293   -7.81155020890315   13.82098719748069
C          -6.69439500586261   -3.82458671918695    9.48569485991305
O          -7.77341133316671   -3.76194600866016   10.05525603205183
C          -6.37290814758592   -3.42514457677925    8.11129528315197
C          -7.29013512241604   -2.88069709352732    7.22742475228473
C          -8.56450389542632   -2.44585197626484    7.56152175569730
C          -9.49682874244521   -2.06788723108522    6.60882682503679
C         -10.75612734659559   -1.46848049071010    6.83301070424737
C         -11.47445060658879   -1.23859214152501    5.69429810943968
C         -10.83405681747083   -1.68980398643791    4.52172358006396
S          -9.25627998971030   -2.34479575067459    4.90352271134956
C         -11.30631736082501   -1.75045123109768    3.22469291192173
C         -12.50780036986917   -1.21604031543597    2.69604159236588
C         -12.69340330376127   -1.51452155395371    1.38450191821586
C         -11.66504467513839   -2.32745496873479    0.82483821058791
S         -10.42593001639734   -2.66106697288106    2.00938955922215
C         -11.57645423288853   -2.84981068361537   -0.42580666130008
C         -10.48430623949191   -3.71602836757610   -0.76936568930068
N         -10.43830673045337   -4.19809117042592   -2.01294843254575
C          -9.42978414748779   -5.00675353956163   -2.29341377129190
C          -8.46897778247410   -5.35031751103184   -1.36183465851304
C          -8.58262731076512   -4.80269199419497   -0.06856788990262
N          -9.60453568208937   -3.98022821841113    0.19713256443596
C          -7.61327113903023   -5.12960897359221    0.93604793683482
C          -7.68207975598553   -4.73180518787869    2.22891911963791
C          -6.75251279457794   -5.05393482726477    3.24970222116240
S          -7.41956527444124   -5.34105642551485    4.81843945228855
C          -5.95008175736374   -6.02316797927419    5.43396523432780
C          -4.91376476252041   -5.92144888277800    4.48418257835504
C          -5.37314872734977   -5.31856733367888    3.25255924907539
C          -4.44695537816213   -4.90672901568212    2.26088000377559
C          -4.80174948921645   -3.99027322897785    1.13081412533153
C          -3.13554791480478   -5.26933109545577    2.42983505842699
C          -2.69817151057268   -5.94026471070969    3.57379201889870
C          -3.53103578544341   -6.22401831071205    4.62735130209058
C          -2.89521713554306   -6.78070021089407    5.86466161187035
C          -6.06958156600554   -6.50379813636608    6.77573241362523
C          -5.44880200103167   -7.55634575178924    7.35233605728768
C          -5.51768683511297   -7.94456858977101    8.72456189576150
C          -4.55320500267355   -8.80718957491526    9.32635579592465
C          -4.78317135482396   -8.98391164613803   10.67620485301735
C          -5.96760219945515   -8.24010049063492   10.98640271377436
C          -6.39271327056542   -7.59148127672166    9.74684084234157
N          -7.53548651977452   -6.85862782307752    9.78565124967296
C          -8.20145885527080   -6.71081712679164   10.94326009100803
N          -7.85489937769970   -7.27279300999164   12.06145989902099
C          -6.75860583805418   -8.04989375296858   12.09026997109720
C          -3.93548527644033   -9.78015099524076   11.52822254002908
C          -4.00464402528120   -9.92796687136082   12.84820704491201
H          -6.04647859587504   -4.97662970848756   12.01459888844461
H          -2.46910455846457   -5.08264279887493    8.51029129065386
H          -4.21544937645276   -6.41022591503970   13.56947790179070
H          -6.99971357468959   -2.77858815510731    6.18950427908270
H          -8.85045729845976   -2.39087071690645    8.60197002120363
H         -11.08833315041333   -1.21737935410118    7.82483757130217
H         -12.45056032503108   -0.78761128248078    5.67285785087249
H         -13.18376299732923   -0.62110470680003    3.28521318166741
H         -13.53561810208084   -1.19872341020564    0.79421287756769
H         -12.31841009399874   -2.65217230129685   -1.18187779948102
H          -9.40233602492608   -5.38941860291617   -3.30599204530591
H          -7.65900043404078   -6.01790646365431   -1.60771035378056
H          -6.80173677746233   -5.76422067051857    0.61235074271976
H          -8.57251902460263   -4.21194170868570    2.55316104069676
H          -5.04108700714807   -4.53637665348903    0.21951634761395
H          -3.94789515154090   -3.35110269571428    0.91495676116760
H          -5.64808655998201   -3.36260847717330    1.39239857774328
H          -2.40522937335677   -4.97712078222701    1.68946975570206
H          -1.64703191782770   -6.17002075461650    3.66543440313177
H          -1.85710766414049   -6.45811257785442    5.91013242407865
H          -2.90085461065034   -7.87108252519784    5.84084424461300
H          -3.39956387341379   -6.44649662060528    6.76519666109195
H          -6.81056894742557   -5.95659383981804    7.34839235727360
H          -4.79690209666110   -8.16889900258123    6.74963740947087
H          -3.73245565846563   -9.24156652182896    8.78291922548085
H          -7.88018971401035   -6.41228019264389    8.94417114520958
H          -9.07724865458895   -6.08000618482208   10.93463503380249
H          -6.56391309855686   -8.50950379369428   13.04771578284310
H          -3.14937404718790  -10.29707689945330   10.98935167197817
H          -4.74263533115029   -9.43540652412312   13.45479782873989
H          -3.30433891698381  -10.55395899483424   13.37341774076280
