100
 SCF done       -211.842639061821          0.000940707683
C          -6.03719266016281    0.69570578654068    5.06181563188999
C          -6.56513246741489   -0.55836763495414    5.23974626238478
C          -6.53925660509487   -1.25439010092200    6.46563233872761
N          -6.53976571420164   -1.86691125951608    7.43670411464257
C          -7.26150778514627   -1.29701622592055    4.25915010593480
N          -7.87888929620765   -1.94376011155749    3.53873295274719
C          -5.47436491232110    1.53519473166438    6.11578742294425
C          -5.20709291070179    2.81728858296231    5.57474425649799
C          -4.69433174514183    3.84808945041066    6.32352299763054
C          -4.42750173261100    3.60068111830071    7.67432785686065
C          -4.69003878864456    2.31556756232893    8.20529376365443
C          -5.21218349546695    1.27385165878325    7.44664278007251
S          -4.28559089412949    2.22655561393881    9.89212846646755
C          -3.77968339396058    3.89506511689880    9.86313800272546
C          -3.90430315537668    4.48955448814412    8.65276396342808
Br         -3.13472201107232    4.69442319351119   11.43224642612650
C          -5.57165020969175    2.82387429192879    4.14775440237790
O          -5.48829706468690    3.77446049437450    3.38756791439874
C          -6.02296086154844    1.46544518860524    3.83593412344524
C          -6.26056134650907    0.95468589289012    2.57774279795433
C          -6.33474805475667    1.61203882108125    1.34861843937199
S          -6.34696886979765    3.33663973625296    1.13803586323661
C          -6.68062953100593    3.22226483533239   -0.55694006595804
C          -6.72995149348609    1.86750947680830   -0.97915137596661
C          -6.51852983752192    0.95844484383069    0.09443771658847
C          -6.49227447448294   -0.41545597394084   -0.19841539933924
F          -6.22715061081661   -1.31478565461925    0.76497842648981
C          -6.70062658454206   -0.88324965714743   -1.47293343410303
C          -6.92881344102014    0.00906783652532   -2.51984465529256
C          -6.93021087022253    1.35937249904090   -2.27274131385233
F          -7.11393078344417    2.20010365708434   -3.30432447200538
C          -6.86674643927810    4.36077139363998   -1.35084609554659
C          -6.64895290510065    5.63369274272169   -0.88833055572900
C          -6.83385777004513    6.83665851785212   -1.59535753924682
C          -7.43964834984603    6.97978895089472   -2.87848727025997
C          -7.55018694236381    8.25863482742518   -3.52577712741109
N          -8.12042412154850    8.34885615931686   -4.72994802333689
C          -8.58462292628012    7.26531002908784   -5.31581127387306
C          -8.49758294689868    6.00021940495692   -4.66544637948090
N          -7.93874003481548    5.89329158977221   -3.48218272860212
C          -9.02639691369238    4.83921256702967   -5.28528508805548
N          -9.46667681645457    3.92621869636079   -5.81791388583397
C          -9.17962915840692    7.38160772077975   -6.59611369185363
N          -9.66507666509788    7.45137748567323   -7.63144569312977
C          -7.05939711193691    9.47592706842364   -2.93941675077771
C          -6.48096306334723    9.32752158843550   -1.65191259833425
C          -6.38735408292325    8.04756683841872   -1.00081668587535
N          -5.82153635959314    8.14524874192045    0.19964164945449
S          -5.44407146790039    9.67662257372364    0.49334442855115
N          -5.98037451146227   10.29702499407412   -0.89624132177216
C          -7.19869542464150   10.66102884933779   -3.66173152457083
C          -6.76849686547940   11.95359985198401   -3.41522584702406
C          -7.02642334493982   13.01577825116258   -4.31383133569101
C          -6.48380767156892   14.21412336980831   -3.94711274451694
C          -5.76337849233929   14.14125524448986   -2.74123302244330
S          -5.82235228488696   12.53268991930315   -2.06853881904191
C          -5.05693031504913   15.16037767248163   -2.10745687022675
C          -4.94403869736877   16.50927664358256   -2.49236943618912
C          -4.15314676218432   17.25228292890445   -1.66041357891259
C          -3.60414937670454   16.51924116020075   -0.58762743550678
S          -4.13220143746830   14.85493631675245   -0.66150784826573
C          -2.73438853057264   16.99630680578798    0.37683439536200
C          -2.21810266072582   16.21082031638226    1.40121898045318
C          -1.27965037283144   16.55970119882894    2.34779738256916
C          -0.37851091749799   17.67506333572427    2.44608501802600
C           0.13878971571621   18.41765878809887    1.40933627936013
C           1.05062869541800   19.47735540730604    1.58176569750184
N           1.77808583472882   20.36273438467490    1.66100733799942
C          -0.08219479984177   18.14247070462157    0.04555059028235
N          -0.18968200094793   17.94181791312350   -1.08028618466754
C           0.08110058962132   17.74263457601313    3.83328223792930
C          -0.35755564454874   16.57816197972280    4.51297031835168
C          -1.17423653912610   15.76116446524360    3.59215134361527
O          -1.68808886553018   14.68549803282333    3.81037613586360
C          -0.04574134863406   16.32928455760355    5.82667530057266
C           0.72355156573853   17.28033785271325    6.50681746070275
C           1.14141894809574   18.44693565222693    5.82438432698461
C           0.83471403616568   18.69426624890416    4.49076274766474
S           2.06775998625839   19.49380387353305    6.85550478301291
C           1.88833008945897   18.36321363012697    8.17100295447085
C           1.17040764998948   17.25897122436420    7.85646939870752
Br          2.66305473932874   18.74932237746691    9.83492795320320
H          -4.50698122368104    4.81471216332228    5.88300060611639
H          -5.39317626261531    0.31282648422159    7.89796878632175
H          -3.63925865856942    5.51233903806832    8.45634529552825
H          -6.41050366193550   -0.11471574197590    2.52948947332516
H          -6.67498168065670   -1.94578319338812   -1.65166956058207
H          -7.09081184520624   -0.34734366653997   -3.52375635486408
H          -7.19021108280050    4.22690565483051   -2.37115353485884
H          -6.25546206487979    5.76161783082609    0.11358763604101
H          -7.72772744281333   10.53358229661440   -4.59986173180525
H          -7.60215687676161   12.86128733021047   -5.20935940142986
H          -6.57802909570779   15.12084979759084   -4.51663566376199
H          -5.44253481308733   16.90059789272093   -3.36056152653830
H          -3.93822218995119   18.29709420358161   -1.79492663641355
H          -2.47225992250810   18.04236216352374    0.31447973137746
H          -2.64705973742080   15.22156567666196    1.53412991576663
H          -0.38392608014726   15.42976096783712    6.31658760504229
H           1.17297253860182   19.59953643461833    4.01455338200723
H           0.96301079041921   16.46150098445705    8.54637630450547
