97
 SCF done       -191.131605409429          0.000532834591
C          -2.17832015180878    6.04947087467542    4.93730608862565
C          -2.57479476994060    7.36242391290667    4.81434800753069
C          -1.69385322269649    8.46209614193529    4.85491002737555
N          -1.05693547713372    9.41857818721593    4.87374845715557
C          -3.87958566776951    7.86345138756834    4.63431930980781
N          -4.88112263528301    8.41182085499429    4.48846018581621
C          -0.79231970990316    5.63144209797334    5.13610080728477
C          -0.76269934532202    4.22058622855657    5.22717515688147
C           0.39514491317249    3.50831787384908    5.41747669389642
C           1.59038749317292    4.22849533844364    5.52339009360514
C           1.55349292022052    5.63873640109929    5.43099665807587
C           0.37839845972104    6.35707006822115    5.23864706927855
S           3.13994634898490    6.33087499173769    5.58703479905584
C           3.82117030211417    4.73638306269854    5.77172245385654
C           2.91002472729389    3.73644946503116    5.71968785527701
Br          5.67145327689899    4.54432966728898    6.01503983356380
C          -2.13344289071392    3.69538616471548    5.08574827328360
O          -2.42241723427927    2.50814733985365    5.11774368172043
C          -3.00117931507770    4.85981390827663    4.90486541614985
C          -4.37309591802779    4.92290218552285    4.71840117121731
C          -5.41406623846239    4.00845907961474    4.65161525160515
S          -6.99611703121583    4.77170354922633    4.38526684323570
C          -7.89824083561714    3.28111639708277    4.40183865254516
C          -6.98929750606912    2.21387321437915    4.60292769415707
C          -5.62961589040732    2.62152347783505    4.74060209215197
N          -4.87682612411070    1.52495075945384    4.93447878534390
C          -5.70327213087782    0.43380661926274    4.92400612246105
N          -5.19052124777464   -0.86014520825741    5.10593054828445
O          -3.98791526040392   -0.96728842320407    5.27418647569176
O          -5.98095665108315   -1.78727680396494    5.08420602185886
C          -7.01990064728176    0.81723790824531    4.72228228461451
C          -9.27312334147881    3.21453405335315    4.25209822210546
C         -10.11190891808850    4.30985839002051    4.08734536398337
C         -11.51607104240529    4.31685709191581    3.95769042225898
C         -12.06477583251101    5.56803685370658    3.83576947094607
C         -11.11305022524998    6.59915558729388    3.86130342276137
S          -9.50336723469873    5.93790486548820    4.03562056024462
C         -11.23075627745978    7.98249531114569    3.78679526918446
C         -12.36037677610515    8.81508827215110    3.66934402446111
C         -12.05218040085299   10.14648678793322    3.64397192520361
C         -10.66755802887195   10.42684132092328    3.73766725523247
S          -9.77024327490318    8.93174589116006    3.85890813033225
C         -10.07929573565662   11.67287722724537    3.73467200754956
C          -8.71268931760576   11.95471716680399    3.83885405814095
S          -7.50895379515578   10.71921768230944    4.09971471162302
C          -6.27495363807091   11.89690758713295    4.20179076858720
C          -6.71585316595772   13.18108120968572    4.06257082065705
C          -5.78323403886527   14.34593132485530    4.08146851469408
C          -8.12035815196345   13.24146132335741    3.83723205602763
C          -8.89195946008496   14.40744907722314    3.56462040520698
C          -8.65216633431304   15.67687743188978    3.97872378066838
C          -9.53224879896772   16.75239388186553    3.67249546632158
C         -10.33429501638346   16.82252431096728    2.57687015931354
C         -11.24219180087463   17.88045249660323    2.31777261931956
C         -11.91824759711528   18.64153941379410    3.22430280449079
C         -12.17535852109620   18.46083456221941    4.63677966382597
C         -12.28233228695790   17.26636185113565    5.30494149619418
C         -12.64972575442172   17.16029761981188    6.66130625014066
N         -12.92667458110482   17.02261933090190    7.76710666124727
C         -12.12581533339109   15.99988329210818    4.70924657713193
N         -12.06377713825817   14.93201788068789    4.28992038670949
C         -12.57899662465064   19.75807910228648    5.17079591731340
C         -12.79492878113441   20.64797295847971    4.08788835042689
C         -12.47657761602001   19.95786910290305    2.82067956652068
O         -12.59632259837612   20.38226503202510    1.69413846290586
C         -13.21791234432622   21.94178071488267    4.26981540210760
C         -13.42618263478439   22.38213786590553    5.58144875930618
C         -13.19334691011131   21.49075689549688    6.65610377667621
C         -12.77396482371586   20.17868090751488    6.47245668320553
S         -13.49873831013529   22.24647490351470    8.19047027448127
C         -13.93510498774423   23.72718263001654    7.37907716668020
C         -13.85414681964287   23.66198374979883    6.02885424286935
Br        -14.45175574422628   25.21902079668974    8.39126947994274
H           0.38013020615407    2.43170408431896    5.48284105978095
H           0.40822166514654    7.43160364082636    5.17577867901442
H           3.15540546705330    2.69450395057998    5.81524061417132
H          -4.74249420152449    5.93534106924068    4.59237753321918
H          -3.85898550255471    1.53789828094588    5.05350463950196
H          -7.86160088881382    0.15759163890037    4.67351142840269
H          -9.72623542298175    2.23327137101868    4.27678617338131
H         -12.08652928114746    3.40492055304025    3.96251730200098
H         -13.11809527380824    5.75889228531534    3.73262273653120
H         -13.35867591779257    8.41997961858302    3.61059000338693
H         -12.77707271536290   10.93745618954148    3.56512309328319
H         -10.75537082752916   12.51528690563294    3.66495100194707
H          -5.26482999018320   11.56896880230479    4.35502802146814
H          -4.76366663013550   14.00612512371510    3.91737055766225
H          -5.81733569179257   14.85013190152519    5.04696212863950
H          -6.04902692143467   15.06253732488548    3.30701172135919
H          -9.81003657267775   14.24057963379515    3.01857543797894
H          -7.83997492122611   15.88991671503262    4.65620154234744
H          -9.51985818472991   17.59426899533720    4.35513982819759
H         -10.21800016431030   16.08934198083215    1.79071530471695
H         -11.38750393248880   18.16358360306433    1.27987582765212
H         -13.38312999021260   22.59508875203879    3.42757095275909
H         -12.60270404331694   19.53723677363541    7.32118786350520
H         -14.08555279050514   24.48166032833493    5.37348238141829
