97
 SCF done       -187.874787516887          0.000399324790
C         -11.66900952968904   -0.23698913680366   -8.87123655698447
C         -12.56800120499939   -1.27110373342491   -8.88203605510881
C         -12.76394814574686   -2.14002443012341   -9.97481340545199
N         -12.96155591137946   -2.87636681476500  -10.83272935505285
C         -13.39653880977395   -1.59927704277275   -7.78976683626403
N         -14.08228333415282   -1.89686284003399   -6.91862741736951
C         -10.77705347346098    0.13915123244031   -9.96536429117227
C          -9.96764044060858    1.22775949222180   -9.54561562710839
C          -9.04271360050659    1.83014990492159  -10.36336138511102
C          -8.91428864217105    1.33740169361732  -11.66469219410939
C          -9.71609212885562    0.24647682819985  -12.07726686829115
C         -10.64882755080115   -0.36511423816583  -11.24556742097511
S          -9.39646365110865   -0.18797746338941  -13.72883044756019
C          -8.21412791166056    1.09034230607684  -13.84173912612242
C          -8.06045080122617    1.80217803745170  -12.70082632539089
Br         -7.29969338166062    1.36959446631785  -15.45295796195741
C         -10.32016366213409    1.57948315488794   -8.17141684969381
O          -9.81948193289092    2.45414356254245   -7.46824351029278
C         -11.41146757797587    0.67726399969303   -7.78009518958172
C         -12.03657697246160    0.80666951574970   -6.56463339026919
N         -11.62013218202488    1.75833535414980   -5.71866351480142
C         -12.11893147274388    2.09369454408777   -4.50747262135865
S         -13.45636665808298    1.25452388244377   -3.78969921509391
C         -13.35803192785563    2.32034062230008   -2.42455022404090
N         -14.26969635756529    2.13801010895337   -1.37626450881731
O         -14.18917162865174    2.89270834065988   -0.42465065641071
O         -15.07629517611754    1.23423907741432   -1.49866657478589
C         -12.36277335000170    3.25510311594721   -2.52374207523131
C         -11.62781876460841    3.14637354222989   -3.71930887406986
C         -10.51658533437585    3.97447866484950   -4.10735129189297
C         -10.06389548487529    5.04440218028045   -3.42680409919488
C          -8.92882037103230    5.79919657769451   -3.87417997593276
C          -8.41477590106395    6.87628342994299   -3.26129436829126
C          -8.99202623267570    7.48075445645454   -2.01579502471037
C          -7.19948929282029    7.56899564053234   -3.82998436350412
N          -7.53087866414136    8.86394242740286   -4.37888205383301
C          -7.58427364770823    9.14361105004911   -5.68657646214282
C          -8.00882068286896   10.32663337579656   -6.20557170129276
C          -8.01033354367776   10.62621399095863   -7.58196460540871
S          -7.43626203109759    9.53789311877586   -8.81722158967881
C          -7.79929231742618   10.65114919581967  -10.13157857527191
C          -8.31520828408795   11.84016812858276   -9.59205384659100
C          -8.44392477415794   11.79720870486761   -8.18546996971928
S          -9.13058043221071   13.25284803078869   -7.54840356753984
C          -9.23636620114267   13.91861736770629   -9.16461351725940
C          -9.77821473033516   15.25801516696197   -9.42835777532737
O          -9.87907888574363   15.66933970752338  -10.56270451971385
C         -10.15613496987378   16.08346978564814   -8.22051483236418
C          -8.90191248559004   16.73213696290808   -7.62902230768136
C          -8.77684025124467   13.05977158659786  -10.12687505829855
C          -7.52407135448230   10.40500780097692  -11.47422157223775
C          -7.19410954653584    9.22551905187524  -12.10108774197765
C          -7.38074930219111    7.85573022337021  -11.71804076030389
C          -8.39832773241342    7.35505255474348  -10.93536502864223
C          -8.56406842324730    5.98811840718023  -10.67127408146630
N          -8.71630738055625    4.87648850428148  -10.42027197780919
C          -9.44732101263689    8.14332422881345  -10.42615516519291
N         -10.35135576816727    8.73897270652973  -10.04148671971110
C          -6.51085180984210    7.04035211204888  -12.56239656828142
C          -5.99906235252737    7.85807525179442  -13.59956856655540
C          -6.45291135699725    9.25209710306229  -13.38127375739944
O          -6.22960563001135   10.21759864684763  -14.07823338369764
C          -5.20875932199315    7.35920123443007  -14.60527283121338
C          -4.89653874386538    5.99422766533202  -14.57645712125069
C          -5.38311746218013    5.19701534202925  -13.51553927557761
C          -6.19262401969086    5.69899772371928  -12.50350012845379
S          -4.85469301425713    3.54711671205792  -13.66388420189306
C          -4.01929037311717    3.93860480142060  -15.14138599803607
C          -4.11728339580786    5.24072724121074  -15.49793707528624
Br         -3.09800159875856    2.58973025989718  -16.06195843198234
H          -8.46805933619919    2.67587139018569  -10.02401463041245
H         -11.24334494597713   -1.18706102752380  -11.60842494297892
H          -7.37937896720968    2.62557891940224  -12.59102499976532
H         -12.86557983965135    0.18312608428566   -6.25524617957814
H         -10.82571684137271    2.31296910319312   -6.10043565704274
H         -12.18410633195991    3.97733293418957   -1.74903824280317
H         -10.00648228309836    3.70908887163048   -5.02370599016899
H         -10.54826333221818    5.35962215928686   -2.51597624732478
H          -8.45712763825783    5.43745248211652   -4.77891513738380
H          -9.09392266017728    6.72948555432703   -1.23493289512404
H          -9.98186005433374    7.89384239033716   -2.20799792842765
H          -8.35463881203124    8.27515088583776   -1.63520703542036
H          -6.75317740077339    6.96674233026064   -4.62283218804220
H          -6.45507155776080    7.70816142678873   -3.03581288077265
H          -7.91662062823143    9.54274261799941   -3.73813063483346
H          -7.22520336257445    8.36716403756465   -6.34932420992009
H          -8.37589442639674   11.10730883873324   -5.55303610179970
H         -10.63913594058389   15.45589512394821   -7.46964573812640
H         -10.84949352803299   16.86154502482826   -8.54201154184475
H          -8.19943796803295   15.97665257903771   -7.28442550303270
H          -9.17382511646696   17.36112676040420   -6.78526049072476
H          -8.41056304641472   17.34896709246466   -8.37770827672518
H          -8.78150704970778   13.31768252608745  -11.17022898033085
H          -7.48034103363234   11.28547061607488  -12.10834520277655
H          -4.84465839888367    7.99819199278825  -15.39427228287923
H          -6.53695618754690    5.05941657125314  -11.70792194649896
H          -3.66136301434692    5.65505850999056  -16.37841576454765
