94
 SCF done       -214.690706900058          0.000683132030
C          -4.35909269088124   -1.94586294358211   -2.66432365285295
C          -3.57664404914325   -2.96193543084866   -2.18915823145690
C          -3.08368344435468   -4.01582833628336   -2.99034549953185
N          -2.65759027461782   -4.89556957299971   -3.59080831365986
C          -3.10344578841962   -3.08938253540438   -0.86339055208210
N          -2.64960273233975   -3.25377628650527    0.17752501863946
C          -4.75337311021402   -1.75544436886948   -4.05436503056492
C          -5.42628410060426   -0.51234845342575   -4.17346728505421
C          -5.90717515863980   -0.03831844574828   -5.37140300281664
C          -5.72102288125945   -0.83213449661642   -6.50690734305952
C          -5.05448698802051   -2.07649598668114   -6.37880250814221
C          -4.56515881567932   -2.55236196426435   -5.16857906422832
S          -4.93630268195121   -2.89747687343930   -7.90299923745324
C          -5.76902597306939   -1.57876890228709   -8.68403667705621
C          -6.11966938687335   -0.57325617906573   -7.84602590272246
Br         -6.09657932069990   -1.65552980370544  -10.52735200276510
C          -5.49879003969653    0.12718881960340   -2.85443286651346
O          -5.96621796671141    1.22248237841519   -2.60134296188325
C          -4.89610735755276   -0.82450352388479   -1.90264706480410
C          -4.93166116942713   -0.73933212988960   -0.54227486844623
C          -5.42359259519455    0.30137257025338    0.28227585302695
S          -5.88394069866242    1.88410483617202   -0.27055220362546
C          -6.08741021564377    2.46612168621222    1.34766328830817
C          -5.81971807338984    1.46407012233246    2.28070012759883
C          -5.49930741779650    0.23766701108203    1.67712579553353
C          -5.34854078698237   -1.04984378415518    2.44332610529624
F          -5.77556028792027   -2.11158975623332    1.73364859223096
F          -4.08307650010900   -1.30704462197347    2.79148520451129
F          -6.08667838777214   -1.06516254047643    3.55762777835912
C          -5.81611566907998    1.68805873628542    3.76661303558555
F          -7.01185161504957    1.45768962090467    4.33335327847341
F          -4.91388552888061    0.93900463945453    4.40239364191085
F          -5.50311868224547    2.95910842598683    4.09054956058434
C          -6.52453296975029    3.79641452963822    1.59283349510637
C          -6.82194549498608    4.67380976242217    0.60768228646599
N          -7.21995949580083    5.94507466789882    0.87036609625162
C          -7.61141056519740    6.87582585483517   -0.03689563485691
S          -7.77602256560840    6.48233910808278   -1.71396298224480
C          -8.30909370074529    8.10574392994395   -2.02223628173876
N          -8.61110268160537    8.43600133469286   -3.35018806521641
O          -8.97410768559525    9.57087243623409   -3.58536637692706
O          -8.47900374599739    7.54401863539763   -4.17080181039903
C          -8.35767925244522    8.89054583808927   -0.90409146958830
C          -7.95200907480070    8.20506114923576    0.25939391952546
C          -7.84661329894062    8.77309600286329    1.57380844590423
C          -8.29334934180641    9.99292123203174    1.93672405746048
C          -8.08151098808886   10.52741356927708    3.24487657547140
O          -7.22114218693096    9.88100613562702    4.08873189008158
C          -7.09584657299096   10.57938412327966    5.20276786487192
C          -7.87794803637132   11.70861984994625    5.14565702249482
N          -8.00685176503163   12.69707383832657    6.14492383946821
O          -7.37491698193585   12.55299183781165    7.16455495057275
O          -8.75946777569960   13.63025073920143    5.91055492505012
C          -8.53987311616159   11.68286086845603    3.87228248486555
N          -9.41151161588792   12.65412912831116    3.47874969862814
C         -10.30247359165302   12.61252827214798    2.47632396833777
C         -11.10611903350954   13.63280900108392    2.06838208135827
C         -12.27959905965845   13.30808746701186    1.21868227317663
O         -12.49174804370123   12.25182360842303    0.66418451252895
C         -13.12748576476707   14.51181771283635    1.25401085277215
C         -14.36706096069380   14.70459324573055    0.71584986368277
C         -15.02238736784029   15.93975219434012    0.91767629266028
C         -14.37635960996040   16.95557206264294    1.68098358256551
C         -15.03928137923674   18.18049304701803    1.88915199349102
C         -16.28335788679188   18.36939371256805    1.35406484796768
C         -16.93416885572286   17.38404547763364    0.59894168907466
C         -16.30510432358362   16.18863754129311    0.38801527860812
F         -16.91848174031470   19.53774699800778    1.55187886556183
C         -13.08704040859660   16.73204708570209    2.21808304131322
C         -12.46863993835914   15.53002967149394    2.00334837532705
C         -11.15293388916634   15.03823550280994    2.40728551230074
C         -10.11433743373353   15.82135887020548    2.84372823419770
C          -8.78718937694551   15.36398591204863    2.96411784402323
N          -7.69297500083679   15.01896082474271    3.02292926393638
C         -10.22660720171528   17.20173240749639    3.11234211260184
N         -10.26226937057218   18.32275081336157    3.35439244900756
H          -6.41022810680351    0.91407092164579   -5.42921441585557
H          -4.06735409094230   -3.50632997299352   -5.12383652986376
H          -6.63808178470608    0.31467736459290   -8.15846469241855
H          -4.51739823885157   -1.58011373028041   -0.00281929050262
H          -6.63445890267952    4.11452576117329    2.61816324188312
H          -6.75771141382171    4.40041895898535   -0.43607667310656
H          -7.23865780001973    6.22347909671020    1.84528223012775
H          -8.66194333235730    9.91996707236554   -0.94315596216239
H          -7.35307617222773    8.17754820840684    2.32973998051206
H          -8.80634165159387   10.62783574205950    1.23375443653047
H          -6.44520694890422   10.21827820435880    5.97519904727237
H          -9.39565520366973   13.47077267476791    4.09408218489932
H         -10.47252908688287   11.64954969550893    2.00981807322496
H         -14.84387011422759   13.92200267244772    0.14504439179616
H         -14.56700891770027   18.96240264810440    2.46306924736675
H         -17.91545423124770   17.59008002555501    0.20188685533416
H         -16.78658660920927   15.41431529669533   -0.18997366317115
H         -12.62603785767494   17.51613144907986    2.79730066293393
