95
 SCF done       -178.893901756875          0.000913797232
C          -8.48535805399504   -2.45199757854843   -0.72987634887073
C          -8.43659532945651   -2.31873796166140    0.63350809251131
C          -9.10829529052762   -3.16839664818215    1.53787193500271
N          -9.61895444858613   -3.83176145760350    2.32315521612221
C          -7.71586319102395   -1.32381436630844    1.32698706166299
N          -7.16752045153037   -0.53806109102854    1.95990244737354
C          -9.26186996841601   -3.44591493925992   -1.46020252188293
C          -9.07683172853065   -3.24408360162138   -2.85039066567274
C          -9.69039960836260   -4.02228999786514   -3.80167969800966
C         -10.53793748518241   -5.04353463822065   -3.36127097818272
C         -10.71611027759377   -5.24037242813538   -1.97010836134811
C         -10.08901665731094   -4.45863262495257   -1.00842909945784
S         -11.80025373266938   -6.55824388600647   -1.64536572035894
C         -12.00018164333973   -6.82126494157689   -3.35758043375204
C         -11.29094764677834   -5.96834350175720   -4.13473309688588
Br        -13.12352273490169   -8.19692124249588   -3.95678849280150
C          -8.15381042726456   -2.11764392139292   -3.06836461442126
O          -7.65213495918291   -1.78705732152635   -4.11766890379870
C          -7.83901405115135   -1.59326234920371   -1.70513780598386
C          -6.97692359416988   -0.56959786383812   -1.46001000925872
C          -6.59606344273549    0.38566876179186   -2.43759366035721
O          -5.42354194023580    1.06614877538559   -2.29882347331709
C          -7.25892268545942    0.89429368624986   -3.53769181585301
C          -8.53242096990881    0.86613570228833   -4.27553499004548
O          -9.54566858365263    0.24793273363429   -4.08715087336768
N          -8.34619753245843    1.81584821181205   -5.27466214347187
C          -7.12919444360601    2.49165444655916   -5.23647978389098
O          -6.79812556271938    3.36320659239828   -5.99934622921284
C          -6.43588991112548    1.89902752216015   -4.09169820867093
C          -5.29798227558655    1.96984329013612   -3.30001475896010
C          -4.12909950050409    2.77409847258226   -3.36960028610394
C          -3.88545759729838    3.62341598348234   -4.39198933519901
C          -2.74596586971966    4.50673327909346   -4.42892472128480
C          -2.31360738262513    5.12028400854304   -3.28426946078357
S          -1.06475390851764    6.26764918170256   -3.51534259769703
C          -1.04948277954558    5.91094460660482   -5.21683425812974
C          -1.98856446789341    4.93502615080200   -5.58342667094599
C          -1.98532318085695    4.44189672371493   -6.91062315903994
C          -2.88130222708721    3.28517191353289   -7.26639094752585
C          -4.19502421668169    3.75635491040129   -7.89393754522687
C          -1.14690571703524    5.00910711955410   -7.85987549929942
C          -1.03755070307498    4.43505682325748   -9.24829934819719
C           0.14328129711414    3.46352769236177   -9.32294472290885
C          -0.28895485231884    6.07762581220370   -7.50577412806462
C           0.64823206098240    6.82789809498262   -8.30269553943575
C           1.39271736608243    7.68743619466256   -7.55815012268679
S           0.99802585067991    7.69080211393342   -5.88158769352996
C          -0.21410454627946    6.48140524849437   -6.16250260200572
C           0.81779781116213    6.79748368371900   -9.75634469202360
C           1.98526983707212    6.51457355093822  -10.32394409391643
S           2.26490217205402    6.65590432375580  -12.06111527180471
C           3.87058856961699    5.93077254400754  -12.15576312839720
C           4.18633082290933    4.70380876748217  -11.66129548136668
S           5.84092951660617    4.31249422649656  -11.91474899262389
C           6.10848566380261    5.80578133605715  -12.71912258151609
C           4.98563290347163    6.56723907574345  -12.77061404464551
S           4.95677182141671    8.21517243627774  -13.44986787889982
C           5.59256890329963    9.02335165045247  -12.02516672314851
S           7.25915719540325    9.51259972095479  -11.87030445695544
C           7.06275334625476   10.09707447442653  -10.24277905016525
C           5.74960183504028    9.90737538141730   -9.83877189803164
C           4.93422507498799    9.31410570554153  -10.85815226116980
N           3.69215351777966    9.18280976233258  -10.33295573079591
N           3.65667915220208    9.63854005081050   -9.06652231444840
C           4.84834339685114   10.06916929750049   -8.74928915834609
C           8.18929039458427   10.66719428038556   -9.56829295917998
C           8.17221173428767   11.15952338191449   -8.32961271186541
H          -9.52845797263308   -3.84008417201511   -4.85217684182228
H         -10.25460486593521   -4.65172645769626    0.03826034202649
H         -11.29767749180269   -5.98865091127156   -5.20918209240338
H          -6.54418121777104   -0.42809466763364   -0.47857800934506
H          -9.05796330795957    2.02457176619955   -5.96051044267376
H          -3.42007546516184    2.64421877924586   -2.56474124300971
H          -4.60656299602296    3.69693749734265   -5.19302954385098
H          -2.73188483311256    5.00310120463543   -2.30342943985603
H          -3.09275783133236    2.70661709235115   -6.36578074758937
H          -2.36958376065566    2.61588671767165   -7.95863311189752
H          -4.72677586187816    4.43377351133860   -7.23195847009346
H          -4.84167926681521    2.90600763134107   -8.09539901883111
H          -4.01265222558252    4.28221367170569   -8.82819816037739
H          -0.87866050713203    5.23366935379855   -9.96859321486387
H          -1.94943557234252    3.91781854900203   -9.53562120822719
H           1.06980693747396    3.97551220607856   -9.07279708531541
H           0.23122364889236    3.05484043811942  -10.32723922525577
H           0.01031856016621    2.64120854948410   -8.62320592047528
H           2.14221830697349    8.37087905961278   -7.91525570351628
H          -0.02424711498663    7.09871581761773  -10.36549753138437
H           2.85167557341513    6.21776625810060   -9.75360799667210
H           3.54176430479430    4.01244375183024  -11.15561608214444
H           7.08159959382154    6.05109982797212  -13.09467962748415
H           2.85675808076227    8.83796681755991  -10.77697686497822
H           5.02898897355580   10.46897228630909   -7.77246238262592
H           9.10492379599081   10.68221910664534  -10.14511019661602
H           7.27942326027400   11.16235239832808   -7.73070709792759
H           9.05796458875760   11.57515857604229   -7.88364307339934
