84
 SCF done       -160.627749900277          0.000885311524
C          -2.51682951200671    3.06725414334215   -4.53168640494303
C          -1.95492808663132    1.99957838131201   -3.87616240411585
C          -0.61641632754381    1.58784793990480   -4.03924239677353
N           0.46064199632568    1.19889567087336   -4.12599581222968
C          -2.60866501870731    1.16411136633563   -2.94765040028016
N          -3.05770763971930    0.44088894522783   -2.17592053579887
C          -1.80715515521121    3.96424059708753   -5.43923564580524
C          -2.71167203986223    4.95226977171699   -5.89898217459636
C          -2.34224148504095    5.95035708502020   -6.76579323449438
C          -1.00993950900524    5.98242246868160   -7.19376849344411
C          -0.11341166774474    4.99245243161352   -6.72923245664436
C          -0.49010212052940    3.97788839819449   -5.85717908783707
S           1.48176915277327    5.21679204047470   -7.38197963339409
C           0.92959841338547    6.62008489785196   -8.25630865121166
C          -0.38086847290171    6.90705416622881   -8.07172022894703
Br          2.13531789161407    7.57513333505475   -9.33007899938906
C          -4.04165991214377    4.69688464592878   -5.31362532755045
O          -5.07868005425083    5.27279764052544   -5.60314032191744
C          -3.87950519827592    3.54471699381667   -4.42228902339993
C          -4.87989395193437    2.93930987309739   -3.69567751653098
C          -6.14441393385591    3.42748997894800   -3.35530035280503
S          -7.29012104279799    2.26395302596942   -2.68508751039811
C          -8.50948743469518    3.45587953951704   -2.37491082988286
C          -8.03954561379839    4.71249758993632   -2.75822323947325
C          -6.72880404041212    4.69078348568630   -3.31090556964952
S          -6.22146485262622    6.29766106898322   -3.65506761929247
C          -7.78013803541045    6.84375526347815   -3.06269944660712
N          -8.59805352206125    5.94748800456246   -2.65621070837047
C          -9.74474388994162    3.09587116358053   -1.78902946269885
C         -10.73783565718566    3.97829049924640   -1.51555492827488
C         -11.95557265950475    3.57316682737015   -0.89605040584707
C         -13.02146328204869    4.35095934298547   -0.62376160990564
C         -13.11578788253302    5.81230578239878   -0.91747216332370
C         -14.22628019140853    3.75427733935274    0.06061726121330
N         -14.34387095830831    4.26689479941438    1.40702342070816
C         -15.25026341013981    5.19007035414636    1.78600668333904
C         -15.17619616450118    5.91754733116585    2.93391020044497
C         -16.19734417671047    6.78058828207048    3.36563031493857
C         -16.13967932285951    7.55286794759495    4.49651690000111
C         -17.14928896106003    8.40247789533655    5.00804592455893
C         -16.80886038821255    9.05443388418159    6.15382473997106
C         -15.50091021556199    8.77098786771688    6.60912860230870
S         -14.72381714869720    7.62339159353351    5.54456784740037
C         -14.85171420799248    9.30010354736221    7.70716258716232
C         -15.35336249622841   10.21256091571371    8.66071477008732
C         -14.45066542125824   10.56565068231198    9.61586962281677
C         -13.17712767371577    9.95767003585862    9.46962549127422
S         -13.18243753277424    8.89649417038104    8.07372796434329
C         -12.08988451185699   10.16553322226454   10.27603754497291
C         -10.80970218266581    9.60187281117220   10.14071939347995
S         -10.32196520432209    8.47646743680016    8.88343805647168
C          -8.70335038334893    8.34372495418565    9.45240367644274
C          -8.51795367842904    9.12594927904122   10.56766833611979
C          -9.70439390149509    9.82512332886320   10.94464791002871
O          -9.49133336320624   10.58477313037707   12.04077688564302
C          -8.18648732020242   10.37891974852975   12.36644901768680
N          -7.67595894858488   11.05823525141633   13.49485662978510
O          -6.50332109073554   10.86303342028836   13.76098206187445
O          -8.42626679489930   11.78206782483566   14.11487014002431
C          -7.54015417209447    9.51334861435632   11.52387418426854
H          -3.05548310451367    6.68709750080854   -7.10058064419128
H           0.23120823526872    3.24562890403799   -5.53570350442289
H          -0.88449429078529    7.73588240601141   -8.53476008160205
H          -4.68292704147160    1.94311696712577   -3.31995505389889
H          -8.01885768238501    7.88965895885812   -3.07203832071984
H          -9.86968515063961    2.04748795194721   -1.55043320317785
H         -10.58958618050505    5.01445932324875   -1.77820505879997
H         -12.01554335658496    2.52165586164963   -0.63896757870584
H         -12.13698286990616    6.27422864171326   -0.99681301231859
H         -13.68247824249135    6.32159889684077   -0.13863865532278
H         -13.64061246195024    5.96502222005573   -1.86157917335188
H         -14.13729993371221    2.66347570298588    0.10309704574255
H         -15.14080865362012    4.00859561802762   -0.48183251968543
H         -13.51472078236255    4.18126332370518    1.97857006288731
H         -16.10540185136905    5.29279562168090    1.13054743352647
H         -14.30123224719715    5.82578742454291    3.56370744017949
H         -17.10040026898032    6.83919929963268    2.77177024097754
H         -18.09943203742874    8.50070890144407    4.51254789932469
H         -17.45492828342514    9.73559823745456    6.67766964136005
H         -16.36269522955553   10.58085618746524    8.61813197787120
H         -14.65043770053918   11.24890132768529   10.42208638806845
H         -12.20646030829587   10.84406115917210   11.11070764138948
H          -8.00677090157819    7.71363971365047    8.94084083347704
H          -6.51567925420329    9.21281181698600   11.59644663923724
