90
 SCF done       -182.055104915589          0.000760395431
C         -10.61282844979452    2.11021813657069   -5.24386239482864
C          -9.87503308505623    2.79681210201432   -6.17625511250049
C         -10.35423069943600    3.18701419954123   -7.44264723496392
N         -10.68270151646676    3.52722549662001   -8.48903191208938
C          -8.54395813801607    3.20659626100478   -5.98375803250247
N          -7.45925192351178    3.56909675342256   -5.87352398776567
C         -12.00675782885864    1.70261698623531   -5.39833306744837
C         -12.42956104665151    1.04613443345149   -4.21366184329315
C         -13.70220677836564    0.55565158603224   -4.05145592208749
C         -14.60446529424411    0.72171456644753   -5.10790080188354
C         -14.17456746741465    1.37753699309159   -6.28591107733337
C         -12.88586514456432    1.87239302446021   -6.45024911629080
S         -15.44830414281145    1.47926976738241   -7.46189507392118
C         -16.52790776424463    0.65194107351876   -6.37044475708375
C         -15.96423499732756    0.31500654048552   -5.18578523368796
Br        -18.29538727717993    0.31328263010883   -6.89727835021130
C         -11.30860064481860    1.01601264057319   -3.26503551868766
O         -11.29632144670094    0.52778697436153   -2.14040682473837
C         -10.18770098847812    1.68484155766383   -3.93259952107328
C          -8.96516135792669    1.83015300836659   -3.31757158438883
N          -8.79041424753954    1.40327388767733   -2.06380153668184
C          -7.67571581235034    1.46232837366418   -1.26965396698656
S          -7.49639963190296    0.14127628329525   -0.14649266393785
C          -6.00690062349270    0.82316362127925    0.40806445279889
N          -5.31515721033672    0.12613455025221    1.40431644754463
O          -4.29142772546422    0.61460205386067    1.84595461394232
O          -5.78930774601329   -0.94423744190104    1.75482680663930
C          -5.67582769147618    1.98468235650060   -0.23213682783159
C          -6.62679538002890    2.38454934133532   -1.20202702565827
C          -6.39908814791424    3.59572226094065   -1.94564419017461
C          -7.26307245479739    4.34711487616188   -2.66114262375107
C          -6.83837881074141    5.47238464013609   -3.43162508503539
S          -7.88424026750603    6.85541830492546   -3.54667347197582
C          -6.68333413802197    7.79916707302073   -4.29277743774553
C          -5.52036123697606    7.08988322846790   -4.49470989682975
C          -5.61653118014391    5.73040836979663   -4.05430355289837
C          -4.53774853295528    4.83249153789275   -4.32038369853109
C          -3.36348179130441    5.37190169183592   -4.79178152215244
C          -3.22959496300214    6.72931123466019   -5.13054311351332
C          -4.29721864686968    7.58655307958161   -5.04133741414326
O          -4.31792671808483    8.88576529435801   -5.42272276158289
C          -3.14296784974210    9.44308390921293   -5.96348926559556
C          -4.73135784906053    3.40239194408397   -4.21336048186260
C          -3.89197752667073    2.52908024390023   -3.61743992747337
C          -4.22444760228874    1.16601390457710   -3.41846625007118
C          -3.67537443676393    0.39759411427922   -2.43078889370317
C          -4.03350503545229   -0.92250361939475   -2.04837286006520
C          -3.42488295078942   -1.36048106088627   -0.91261213221725
C          -2.55797459204088   -0.40871169052640   -0.32536975980268
S          -2.47739424085728    1.03399297691905   -1.30623308702750
C          -1.91802335739653   -0.45657256669403    0.89581294197975
C          -1.90526549569174   -1.49217971628188    1.85804368187610
C          -1.26700293432880   -1.15241443159246    3.00846970005643
C          -0.75919748334115    0.17757906150111    3.02809070970643
S          -1.07395331981498    0.94793267991238    1.49578851774583
C          -0.09103237421793    0.74367623197901    4.08413602246153
C           0.34161846551965    2.07906032230427    4.23028516602624
S           1.53188904972568    2.45986020197357    5.45591425110759
C           1.53579785054449    4.13631213920814    5.07721155343235
C           0.66186142536056    4.39793272203567    4.06453297654217
C          -0.01739760746935    3.25580435917332    3.58599076863124
O          -0.98881470844650    3.36428622160663    2.63216695237840
C          -1.27757083088969    4.56079239254101    2.09699160905984
O          -2.13411189366877    4.65893178866139    1.26127237446145
C          -0.49519434447074    5.79356929317278    2.57428144217512
O          -0.69479347369845    6.87505565174137    2.10034395307499
O           0.42975681303041    5.64394341933334    3.54549429871436
H         -13.99503171051552    0.06218368112058   -3.13804948912852
H         -12.60773755627380    2.36508151943198   -7.36680423103754
H         -16.48517029689931   -0.19807599697924   -4.39817722371065
H          -8.11913512275341    2.27931136320091   -3.81675024639766
H          -9.61216544623775    0.89734381041727   -1.68908668203585
H          -4.78527767945461    2.54368600673360   -0.00265756512114
H          -5.37777759999183    3.94003571828286   -1.88341841247672
H          -8.33118957697686    4.18260324201198   -2.60937766643337
H          -6.86895906036791    8.82645390404187   -4.53182161370202
H          -2.52664910796708    4.71515843418271   -4.97738195230691
H          -2.27916668941407    7.06535987045523   -5.51275000422496
H          -3.38837074311181   10.47708044318748   -6.19948102237248
H          -2.83909309850297    8.92362836960766   -6.87761174414637
H          -2.32171896018686    9.42052047569054   -5.24077196268508
H          -5.67217943934126    3.04443826908875   -4.61086852018273
H          -2.98859139198917    2.88877569602956   -3.14095909430588
H          -5.02325280031937    0.74042941975976   -4.01204507421217
H          -4.74763292032799   -1.49426253319694   -2.61514125829382
H          -3.59844050010579   -2.32125345641291   -0.46153703748228
H          -2.38152176637541   -2.44030309940450    1.68337862476264
H          -1.16799435125239   -1.79686549318404    3.86398229964023
H           0.15697653870682    0.08888124233287    4.90900181392869
H           2.15942453130843    4.82424927182327    5.60710563553804
