104
 SCF done       -207.994947826861          0.000651728630
C         -11.23422549658752    1.00762789888427    3.35840974280046
C         -11.26426477995737   -0.35528368518879    3.19504434798769
C         -11.59280122265805   -1.27029999628778    4.21663875382705
N         -11.84319568655101   -2.07416607146950    4.99776477316491
C         -10.96644400348921   -1.05012826774453    2.00529577766451
N         -10.74210089162385   -1.69872167293509    1.08357411412117
C         -11.54795704002623    1.71288841817411    4.59645788324588
C         -11.37055921964275    3.10290510583952    4.38679395597743
C         -11.54991466731364    4.03135676915791    5.38294745572246
C         -11.94265905804084    3.56760621421867    6.64192536553797
C         -12.16545778945769    2.18297705781554    6.83078639601140
C         -11.96370099592178    1.24227166854004    5.82855430334646
S         -12.71108910688397    1.84036561325250    8.44205835094485
C         -12.62666842635169    3.53482439565014    8.83322578446994
C         -12.19730463749251    4.32081413388529    7.81906278869630
Br        -13.16015634740228    4.12073445689367   10.53243342426699
C         -10.98349037927071    3.34191835839914    2.98387755745425
O         -10.78393199266157    4.42344417151447    2.46874135432002
C         -10.88555629940232    1.99891584728471    2.36040761743945
C         -10.48605139453224    1.76472268851085    1.07055980908032
C         -10.19314761732758    2.77099063669423    0.13070460219850
C          -9.68690473266378    2.49397959662478   -1.10568719153950
C          -9.38551009294673    3.49195675229474   -2.05258615501470
O          -9.69800911500663    4.79322987399960   -1.82412492896712
C          -9.26141406683995    5.53491287544442   -2.86970403946693
C          -8.64782664568580    4.69235702966215   -3.79984914913441
C          -8.73601080892204    3.38767784875035   -3.28777790694486
O          -8.28310291683508    2.25339296445372   -3.84947791065147
O          -8.07003348276559    4.99829615240115   -4.99239471065358
C          -9.47609044559989    6.93160498837858   -2.89350745551884
C         -10.24720677109656    7.57375226225861   -1.96921554675805
C         -10.47975547342451    8.96041655545594   -1.95029793173739
C         -11.32056460126720    9.53328050580205   -1.03735945932275
C         -11.59897608159369   10.89698066644335   -0.85847103396764
S         -12.20118698146222   11.35924913774622    0.70496044024682
C         -11.93324011260043   13.05412541456304    0.42542498829843
C         -11.44579485630777   13.25083578657024   -0.89763723869773
C         -11.34650937531279   12.04352563700836   -1.64687917717839
C         -11.06773520157619   12.10183190178596   -3.03429073410637
C         -11.38940534759151   10.98893684249468   -3.94881358061632
O         -12.29520925010781   10.20809023880068   -3.80110813917703
O         -10.61344331616981   10.97363427813736   -5.05046806432653
C         -10.70531481365586   13.31613613802699   -3.58562846590363
C         -10.67663816875785   14.47790565485966   -2.82187629909445
C         -11.08572461499898   14.47493001243159   -1.50109802054208
O         -11.15128828684858   15.62269438460407   -0.78633510923869
C         -12.18122968369826   14.01817449886531    1.38992010828915
C         -12.74827869342166   13.82308659209711    2.63914818196502
C         -12.97831486693888   14.82457798956599    3.60332839652294
C         -13.58132778066016   14.37659989933629    4.74765912826643
C         -13.86263503780791   12.99968706714545    4.73086095700072
S         -13.32150552161101   12.28240574458154    3.23526038418995
C         -14.48756763618096   12.22693763779713    5.70540263505020
C         -14.93503494188296   12.61918394195424    6.97895448686698
C         -15.50967502531872   11.60644460802834    7.69945511328927
C         -15.54999769744673   10.37402841390700    7.01810684020805
S         -14.82307924346538   10.53464892658325    5.44061021455884
C         -16.03614023819904    9.14026284671594    7.42754008919068
C         -16.64421754849449    8.89046050292563    8.64719961808816
C         -17.07960681483798    7.66359924103611    9.11942364686396
C         -16.81137399212416    6.32741774185021    8.68175117817757
C         -15.71412003717918    5.88581277966122    7.97112802636416
C         -15.52435255109338    4.56076461900865    7.54479635553726
N         -15.30618791606078    3.50695627334305    7.13860068058593
C         -14.58622814567395    6.67342711264600    7.68076422437201
N         -13.60044306632981    7.22587363098268    7.46860540253615
C         -17.81072921266327    5.45286586518603    9.29477736947100
C         -18.56691043778322    6.21225777376501   10.22183213096883
C         -18.10006488991390    7.61624540003752   10.18592310725117
O         -18.49924459102474    8.54434646687389   10.85818076738716
C         -19.56800890338269    5.66264740457741   10.98204849003138
C         -19.84256059436867    4.29975013051937   10.81381089252774
C         -19.08452405632066    3.55246791417100    9.88390857026052
C         -18.06405502343103    4.10769313271496    9.11930005208522
S         -19.59441529825687    1.89197206957408    9.83004111104837
C         -20.80315544090389    2.22082266946463   11.04244531463215
C         -20.82522538569469    3.50601080056409   11.46715880105687
Br        -21.92624686037991    0.83733110004865   11.62927356026521
H         -11.40194041723727    5.08387941428600    5.19864464555650
H         -12.13644419704914    0.19738647467776    6.02474972459388
H         -12.08866893226769    5.38845988671083    7.88293808663109
H         -10.37622119850015    0.74171992028844    0.73432113735127
H         -10.36030541406132    3.80023599848301    0.41047778565754
H          -9.46533715543602    1.47935391150654   -1.40599760921198
H          -7.87177305394736    2.47101490765954   -4.69655877810919
H          -8.11828424209271    5.94792089692433   -5.14397741429843
H          -9.01292238112462    7.49008784461699   -3.69668553107307
H         -10.72705343924385    6.97282766422173   -1.20952847552023
H          -9.94201603052842    9.57476367002974   -2.65875078514434
H         -11.76501698308992    8.87803873322251   -0.29767515292298
H         -10.93208014724753   10.28815606100919   -5.65829560095954
H         -10.47784929366404   13.36978022880252   -4.63840746132525
H         -10.38593644690974   15.41134333094429   -3.28407805785516
H         -10.87511437882995   16.36703703968660   -1.33744802852709
H         -11.91605973849876   15.03464691155788    1.13941726759120
H         -12.69424015544744   15.84737449542186    3.42922643625357
H         -13.83289478026971   15.00359089763491    5.58365229510537
H         -14.82069033470856   13.62540630673479    7.34043257780795
H         -15.90016369850077   11.72429875279825    8.69375921493888
H         -15.94314563658551    8.33338453199655    6.71495187011786
H         -16.89952294964329    9.73001922858278    9.28293448506791
H         -20.12443143383871    6.26171342232393   11.68569465923152
H         -17.51631178717729    3.49800624080490    8.41982901996815
H         -21.50605602708525    3.88146519647954   12.20915651580530
