116
 SCF done       -217.960714212053          0.000578819517
C          -2.76170709276977   -2.57545047094017   -5.96480351483950
C          -3.50767826412247   -2.78863006704492   -7.09539163802948
C          -3.62777598856520   -4.03641938648247   -7.74309875795277
N          -3.76141475456496   -5.01943082968041   -8.32034988756740
C          -4.24428351131282   -1.80105897864258   -7.78196644458834
N          -4.86083046561136   -1.05233292090553   -8.39675692420191
C          -2.00128723222935   -3.58931810377165   -5.24511596939824
C          -1.35341368974835   -2.98224290645758   -4.14073896925418
C          -0.55486927858105   -3.68415301384168   -3.27106841509419
C          -0.39547714553185   -5.05550189694979   -3.49406606805688
C          -1.04725926607496   -5.65509491415434   -4.59927601124871
C          -1.84867567781774   -4.94366876803366   -5.48275505309973
S          -0.71040482173434   -7.35683680572581   -4.69324515407457
C           0.28705803269864   -7.24222647013014   -3.26771390823082
C           0.36439019247592   -5.99488875097851   -2.74535500858921
Br          1.13282782235546   -8.77855343774837   -2.60550528394705
C          -1.66640645033368   -1.54316984632702   -4.11448626643573
O          -1.14694265268113   -0.70201490759685   -3.41884302766934
C          -2.62048862852246   -1.32426201277939   -5.24266456562609
C          -3.14060237106009   -0.11412821991468   -5.58302914353919
C          -3.17183142494171    1.00946849663627   -4.71776473033872
O          -3.25153249446979    2.25918327800781   -5.25928281044090
C          -3.23858359656398    1.13102744666286   -3.34328657541373
C          -3.35259698427621    0.37850153134556   -2.08171593752334
O          -3.43271114749781   -0.80152246746019   -1.86795552434065
N          -3.42245969612700    1.37609259017726   -1.11667542447308
C          -3.42676993020886    2.68459887785766   -1.60278880541697
O          -3.50494665373482    3.67485735786546   -0.92571592252136
C          -3.33091417087401    2.50981874707865   -3.05456101725629
C          -3.32570052604324    3.18106709242849   -4.26670349748723
C          -3.36099658126048    4.57141551593364   -4.55621285954357
C          -3.35757820778070    5.04210314551490   -5.82374761036931
C          -3.40443244473273    6.43734750243279   -6.17262787215546
C          -4.05475963405720    7.32445173542463   -5.35335084650677
S          -4.07999877499446    8.93645719054410   -5.90938800375512
C          -3.14020320714625    8.47103625870575   -7.29290495985202
C          -2.84261091526390    7.09939392198236   -7.33359816191253
C          -1.99638815328983    6.61726561521722   -8.36474746771194
C          -1.72039315611862    5.14054553546281   -8.43473479001942
C          -2.89362461355501    4.40258162795299   -9.09043204951430
C          -1.45964332062960    7.49461102436112   -9.30097331162854
C          -0.42380707764458    7.05571027086718  -10.30368325722208
C          -1.02674064562157    6.49179156841321  -11.59222234958162
C          -1.83411273510771    8.85946051631728   -9.29474661433035
C          -1.41630844127765    9.95232519317014  -10.14416908854322
C          -1.92161051693903   11.15123830221001   -9.71495145192363
S          -2.94232593087792   11.04403221606885   -8.34357511809974
C          -2.66863632804057    9.32997603855645   -8.27022792589731
C          -0.60073835404154    9.91513891788503  -11.33562601514951
C           0.29308767355391   10.89923903578177  -11.59996869844198
C           1.04933813777751   11.04526190998386  -12.78080591477713
C           1.90298098853204   12.10412230136101  -12.95060518886718
C           2.60741859360554   12.52237014212795  -14.10757910482874
C           3.24179633627018   13.72198997365609  -13.97496436178435
C           3.09290695864991   14.30447608243963  -12.69549373053459
S           2.16903382925626   13.26050556571756  -11.65260089238621
C           3.45435672797006   15.55296231018647  -12.22212317472849
C           3.94822868515994   16.69529077365408  -12.88190530972039
C           3.89959901473239   17.82475414287513  -12.11610988017829
C           3.35823590664645   17.63473506205880  -10.82014903084946
S           3.03755922733558   15.94705307911802  -10.56776571708430
C           3.14848443418476   18.61963925056640   -9.86806710164762
C           2.56207099238069   18.52367281423853   -8.61019620018554
C           1.78948718941592   17.55215708910189   -7.98931144852062
C           1.78707119231778   17.53183656215307   -6.50351614618294
O           2.24612879110828   18.37516839682591   -5.76320763436584
C           1.15271130414921   16.25082365523036   -6.12387192733149
C           1.00602539111168   15.68644386075238   -4.89140836802049
C           0.40710193615887   14.40832375674957   -4.78513802931165
C          -0.01730590618108   13.73899154484295   -5.96800075078278
C          -0.58641821305953   12.45655179770424   -5.86050632450016
C          -0.73395394729314   11.88626414126304   -4.62746702971223
C          -0.33391535461337   12.53101727936959   -3.45110200065534
C           0.23005158302356   13.77479893614376   -3.53901344983723
F          -1.28096747433599   10.65610299022021   -4.53030187707364
C           0.12991577346389   14.36028158528239   -7.23137062346354
C           0.69704187002027   15.60107167030581   -7.30514611429065
C           0.96660851441751   16.47817662497774   -8.44480130628163
C           0.36811162220367   16.34992927427905   -9.68476919152564
C           0.42556334699272   17.35336653003565  -10.66824683085496
N           0.44703668253272   18.16272943503510  -11.48322309708771
C          -0.42068988696290   15.25185736934338  -10.06367957870610
N          -1.04604774509180   14.36042985641970  -10.43514138296799
H          -0.07606586282625   -3.19023849966405   -2.44055676395438
H          -2.31988686946630   -5.44639948691472   -6.31068899994685
H           0.93382996868006   -5.74568623405629   -1.86870079699495
H          -3.57594292494227    0.04647636748779   -6.56042242571514
H          -3.49536369830475    1.16761911152228   -0.13086588464538
H          -3.35442527816032    5.22054662837405   -3.69436230767624
H          -3.35185903398646    4.31147190247184   -6.61530958187024
H          -4.57689271519046    7.08241940783284   -4.44820706069567
H          -1.54579646030513    4.75995698044499   -7.42718743479384
H          -0.82209810941958    4.93360419379334   -9.01226944078725
H          -3.84090863362159    4.66956750066779   -8.62799120880984
H          -2.75488546112202    3.32610107723898   -9.01529740923817
H          -2.96602865252909    4.66520831699175  -10.14268170589975
H           0.23766426474799    6.30974225816567   -9.86107236025569
H           0.19937379075355    7.91971408334552  -10.54166484765359
H          -1.45414789874246    5.50837702985393  -11.42177109229987
H          -0.25816449520991    6.39676606417448  -12.35667217306070
H          -1.81681431315093    7.13914432067603  -11.96665662742228
H          -1.78536625760843   12.10980761026168  -10.18024039007359
H          -0.75658743998946    9.12217002330310  -12.05129640846453
H           0.44429679952348   11.66290738984490  -10.84736307392583
H           0.91973671668968   10.34075593557943  -13.59102388495880
H           2.59150904106614   11.94164556848298  -15.01331685617894
H           3.79608965798969   14.20851533183769  -14.75760734547054
H           4.27766573077106   16.66699836393698  -13.90505125469844
H           4.18907804064474   18.80177645946388  -12.45953020809192
H           3.56161891604779   19.58791266643290  -10.12328892214207
H           2.80855388022686   19.33871224599599   -7.93349153807749
H           1.34631667078499   16.20200489970888   -4.00581763837512
H          -0.90878964633138   11.93216785353130   -6.74580502631672
H          -0.47599728145241   12.03566791231689   -2.50374113775268
H           0.54978554446364   14.28994153696091   -2.64557490096863
H          -0.20106527239245   13.82851804075202   -8.10868588394029
