96
 SCF done       -176.003762389495          0.000883817983
C          -4.27413766931541   -1.62733865409610    1.75227414768828
C          -3.20826303023820   -1.28444312473879    2.54935815086024
C          -2.35770209500997   -2.21807523394656    3.17291450155767
N          -1.62749396611500   -2.93259710696133    3.69817560404463
C          -2.83912489276703    0.03478261924761    2.88027886662281
N          -2.49751879736957    1.07803074226098    3.21944956627204
C          -4.73754103943262   -2.98971745732020    1.50062118386115
C          -5.91372879044427   -2.92309030179126    0.71649729581011
C          -6.60464452875729   -4.04033943570809    0.31882623796053
C          -6.11156454310861   -5.28799635537906    0.71833212899912
C          -4.93372601929728   -5.34527023309817    1.49802274281840
C          -4.23370804142015   -4.21239688255439    1.89858602043851
S          -4.49555582517071   -6.98490162493675    1.87409060452408
C          -5.88400465567325   -7.56166055882449    0.99167269265841
C          -6.63843209023165   -6.57984204010200    0.44376670602990
Br         -6.20978857712732   -9.40627704212286    0.87936924062455
C          -6.22515702136516   -1.50788483256868    0.42352552387876
O          -7.12916775269353   -1.11404809615810   -0.29520635934193
C          -5.18623705233269   -0.72090700403402    1.09809377173549
C          -4.98791490161523    0.64027303303479    0.95193900241607
C          -5.90445489536194    1.60667611067408    0.54360422394397
S          -5.27618930666700    3.08207690008013   -0.15817300500995
C          -6.84673403745972    3.70971570619047   -0.48997473348873
C          -7.84233715373601    2.84498316416452    0.00147515026296
C          -7.31436880408351    1.66721906057257    0.60476658133971
C          -8.17841166190565    0.76870270172792    1.23761113846380
C          -9.54099515085757    0.95361300734807    1.16108753961771
S         -10.67009964774626   -0.25655703573107    1.74769794226464
C          -9.75096503246903   -1.82212356284000    1.55562773910755
C          -9.09401314580693   -2.29689078362034    2.83870495515740
C         -10.06626400374371    2.13113370180845    0.56816457600122
S         -11.81312971462378    2.42467600071186    0.48484743107033
C         -12.26842928912791    2.52676123932418    2.26610236346459
C         -13.52884762269322    1.73541512674819    2.54698102576922
C          -9.23064389762464    3.05883533415129    0.00434652338214
C          -7.05685552708959    4.93061572987728   -1.17530141094384
C          -6.08285749320094    5.77961771958950   -1.56971221965024
C          -6.34030224576391    7.01480199396566   -2.27601617052644
C          -5.34719415084178    7.87486603155782   -2.58456705053473
C          -7.67503624918281    7.29498900714040   -2.64231410091600
C          -8.82768243721690    7.50286391211344   -2.95644447153956
C         -10.14680698854233    7.73735292201425   -3.32271424771756
C         -10.56764608507400    8.90722751981275   -3.87499792299609
C         -11.90083602283224    9.14890907937580   -4.25347162836737
C         -12.34329400994222   10.32820896774788   -4.79538595177784
C         -13.66609075886848   10.64095612165550   -5.20078776579122
C         -13.81432010646359   11.89830015596613   -5.69951743934237
C         -12.61653423519253   12.65043806703226   -5.71469649171752
S         -11.29078932738840   11.70677335498583   -5.07877913417654
C         -12.42588146567858   13.94948980403839   -6.14485368082142
C         -13.37447099861598   14.85051556863861   -6.67779113686040
C         -12.85346141791567   16.06552886896174   -6.99894028451045
C         -11.46240469325798   16.19422827680589   -6.73797423426072
S         -10.84613388692104   14.69741752413361   -6.06719192379020
C         -10.72360518792721   17.32442354406452   -6.97740365370320
C          -9.34926803972106   17.53049997319646   -6.74773886211851
S          -8.64118014675738   19.09315374363646   -7.14060081379216
C          -7.05715146331152   18.65651954829262   -6.63897321919844
C          -7.04591114461223   17.36062764975672   -6.18258544367085
C          -8.33210317650413   16.73553832062806   -6.24589906147249
O          -8.26140238349394   15.46750809362028   -5.78707743635873
C          -6.96426842568317   15.27610629483676   -5.43551302025733
N          -6.60634136831314   14.01137476050793   -4.91487879264901
O          -5.43644477524307   13.86297037836625   -4.60849481312078
O          -7.47066841433271   13.16728827732762   -4.81138059230200
C          -6.17352318194014   16.37413193620676   -5.64649306310554
H          -7.49711386350982   -3.95899286459484   -0.28222076393741
H          -3.33773681376302   -4.30916729008780    2.48844908873297
H          -7.52782753407727   -6.75737965523303   -0.13294243819022
H          -3.98209120226427    1.00865923964197    1.11913659182681
H          -7.76812359833793   -0.05785922695627    1.78837492255688
H          -9.03488920311338   -1.67145873875007    0.74804369069205
H         -10.50954509125021   -2.53670190819143    1.23397504855873
H          -8.36454121900438   -1.57877281901366    3.20817095501125
H          -8.58215706838855   -3.24119471084394    2.65862081680286
H          -9.84144508325753   -2.44861154232830    3.61461089374050
H         -12.40894865173110    3.58597100921021    2.48358414984217
H         -11.42410414644151    2.14699110890438    2.83705879349134
H         -14.35414631138075    2.11002849695524    1.94624369637628
H         -13.79249411677079    1.82429785775122    3.59881777063068
H         -13.37327341376720    0.68592045177298    2.31081873084852
H          -9.65251989913526    3.95064007289812   -0.43027926152594
H          -8.08578378734730    5.18531842882342   -1.39151639976747
H          -5.04724511013418    5.55448306776332   -1.35040041529108
H          -4.32648299401908    7.66624106804916   -2.31405920189545
H          -5.54321546208519    8.79414330974173   -3.10752066865880
H         -10.85051022694006    6.93133830297000   -3.15012791561883
H          -9.84940557565324    9.70153132371538   -4.03492030484313
H         -12.62791014298616    8.35947441009194   -4.10954279594339
H         -14.46309330477592    9.92387718095082   -5.10902643254285
H         -14.74453644340254   12.30534155104344   -6.05366980437302
H         -14.40716877272684   14.58075875486291   -6.80861878365264
H         -13.41867707043746   16.88046754983717   -7.41568533366672
H         -11.25339503925656   18.17044525811220   -7.39467549269226
H          -6.25524870031084   19.36066027806951   -6.70973223526526
H          -5.12560969244127   16.44660980717010   -5.44210794444001
