90
 SCF done       -186.224299806097          0.000621449272
C          -1.51663739718144    1.66466299583389   -1.80515632112955
C          -0.73067124125262    2.59920505648457   -2.43533412016192
C           0.41638705449100    2.27460532160089   -3.18922685567456
N           1.33727471838826    2.06652223945588   -3.84251183462746
C          -0.95275886319596    3.98726528139746   -2.49776281408947
N          -1.04609026611608    5.12595383606277   -2.63061974450634
C          -1.23472074644972    0.23417423723557   -1.78272074196338
C          -2.30322641315563   -0.42510972033881   -1.13045200615253
C          -2.35257182386412   -1.78919198015434   -0.97914642831252
C          -1.28118257031512   -2.54074642584944   -1.47413133939559
C          -0.19429483422893   -1.86960325740620   -2.08390953596824
C          -0.15602102303829   -0.49112704994632   -2.25399107673316
S           1.04568805707568   -2.97924896465242   -2.58118194075130
C           0.09106140515512   -4.31299315900097   -1.99491660448641
C          -1.09089380030883   -3.94822910288738   -1.44254249516277
Br          0.74346818478656   -6.05983300605125   -2.16343556338727
C          -3.27574074042295    0.57585335596208   -0.64651919783350
O          -4.29533687908043    0.32631808115943   -0.03570874174979
C          -2.75252618090476    1.88775823068279   -1.07967254995078
C          -3.33196116015510    3.12377782319861   -0.92882503178959
C          -4.46749982939365    3.55075373563325   -0.22596518151132
S          -4.93132606434569    5.23759482251651   -0.50287387512728
C          -6.20535046071224    5.08656029604519    0.62197051203154
N          -7.10362414027348    5.95935696175408    1.04724682407356
C          -7.88842752324037    5.44464334079569    1.97007361952384
S          -7.53653990433606    3.74534094965325    2.36192444284984
C          -6.25767055193861    3.79199576641260    1.19321161446342
C          -5.29276943858280    2.92898855747108    0.70669103471598
C          -8.90435395751974    6.19963066371582    2.56064069563691
C          -9.14597863671876    7.47634941219230    2.09738134953741
C         -10.11322777325996    8.41328526439781    2.53709381801837
C         -10.13701809524906    9.57219787646531    1.81650533048993
C          -9.19418844573033    9.59082453166085    0.76758764514092
S          -8.23580754334442    8.11554642014651    0.76122283421123
C          -8.97394977640278   10.52350389876713   -0.22685424788410
C          -9.55184741521454   11.78798406683892   -0.47950706343902
C          -9.10707983904375   12.39337011238750   -1.61782005958952
C          -8.15810821005845   11.63129556342993   -2.34409765719083
S          -7.81955863530890   10.12919684516070   -1.47570607266002
C          -7.56919055127446   11.87332076636330   -3.55450029521696
N          -6.74277007651553   10.94141963549792   -4.09066200921825
C          -6.10957722879505   10.90515737209905   -5.27807676076874
S          -6.09321445650564   12.24321673522982   -6.37446246707299
C          -5.09929011146834   11.31103992892559   -7.45863902746370
N          -4.74643470457030   11.92449519429309   -8.66520476038414
O          -4.07586402622976   11.28907167120004   -9.45520266482111
O          -5.15659629208975   13.06248841656031   -8.83043125455876
C          -4.80058720853452   10.05896168498884   -6.99898083124734
C          -5.38180334437937    9.78699519325153   -5.74443767853059
C          -5.32406233665193    8.55341064091762   -5.02965172480067
C          -4.58112199820695    7.46048967181935   -5.33636682071798
C          -4.67691693076488    6.29727599226354   -4.53564488615618
C          -3.92941842666849    5.15893626123941   -4.54407019443602
C          -2.66899262682476    4.79582266911382   -5.15705165482098
C          -1.65428067769199    5.64710753466362   -5.50296630182898
C          -0.41678122936861    5.22013286129041   -6.03074604032389
N           0.59236146756135    4.92675738392529   -6.49102714110829
C          -1.67607309919947    7.04245094137205   -5.29387690399059
N          -1.62730833316196    8.17640453756730   -5.12638393283129
C          -2.56485618979550    3.33742384447788   -5.10375200516416
C          -3.63471783574250    2.83358313673772   -4.32080738721405
C          -4.48242930149769    3.95310608246560   -3.87857816909495
O          -5.45334591146342    3.90489354717880   -3.15349737024313
C          -3.79606771042643    1.49531313375871   -4.05560866142679
C          -2.85767185954335    0.60805504641666   -4.59037335140647
C          -1.78688924957122    1.11755520012829   -5.36407242020407
C          -1.62507714089314    2.47260105707512   -5.63349919717979
S          -0.74198397687508   -0.15241617517682   -5.92006235210815
C          -1.75792914690794   -1.33382603420612   -5.13777794023292
C          -2.81633569944837   -0.80805563722460   -4.47764694073039
Br         -1.34513356857738   -3.15459474254841   -5.27460570776106
H          -3.18712978129916   -2.26202394067918   -0.48519540975929
H           0.69371385526352   -0.03186260926952   -2.72990722221304
H          -1.79981028912527   -4.64309426459533   -1.03109851835510
H          -2.83581095235584    3.93817813296608   -1.44354759208417
H          -5.17405359922971    1.90147965512993    0.99600943783313
H          -9.49565075830346    5.77856040440628    3.35704192126310
H         -10.76533541909507    8.19766853136316    3.36515832883930
H         -10.81456056011984   10.38722081502877    2.00131675388814
H         -10.28144837246407   12.21321291353785    0.18617398602652
H          -9.44179138898300   13.35360814983212   -1.96713320722965
H          -7.75318766736384   12.77321155263124   -4.12008692445504
H          -6.60996123039140   10.11810330762263   -3.50845649996808
H          -4.19361164353967    9.37192534027477   -7.55877485455009
H          -5.93425004737256    8.47937847798851   -4.13663706476519
H          -3.92991121598526    7.46021471165416   -6.19518628253186
H          -5.51677790036549    6.25988325431415   -3.84651061950462
H          -4.62124606225349    1.14374388525527   -3.45571833274634
H          -0.79655422206753    2.81077182206468   -6.23366065943411
H          -3.54219220176429   -1.38985656964493   -3.93960300695340
