88
 SCF done       -159.679687826910          0.000547840260
C          -5.80215960788906    3.19587461169734   -5.48759049658371
C          -4.51409165427466    3.66141075757528   -5.61102233165413
C          -4.07728386846930    4.50243461891505   -6.65174499947068
N          -3.67079537632634    5.18686686250751   -7.48019244569722
C          -3.48403025801418    3.40216915794878   -4.68511766458122
N          -2.60639401931030    3.26533976832769   -3.95634571064940
C          -6.92687975733721    3.55881135845661   -6.34186776153187
C          -8.10441606170915    2.99349165513967   -5.79444646639892
C          -9.34009150962653    3.15834667174934   -6.36851320238494
C          -9.41852354505010    3.91808701767375   -7.54195125827597
C          -8.23685520967792    4.47436410333926   -8.08332826648769
C          -6.98515687692065    4.30850986440131   -7.50064957237164
S          -8.55960688079812    5.36725095394793   -9.53921760279356
C         -10.25576971729602    4.98795441575185   -9.39987416253899
C         -10.56623008541686    4.23170352827956   -8.32064395667220
Br        -11.45762004610788    5.62678229184337  -10.69146297013245
C          -7.76392905317398    2.23264900337190   -4.57397904096746
O          -8.53953387693405    1.59249325207655   -3.88886927806451
C          -6.29965808173515    2.34449592915163   -4.43379852209921
C          -5.51571924265240    1.55202867198373   -3.62458455433190
C          -5.91167972012622    0.79554185017482   -2.50373789444518
C          -6.93262020113793    1.11472423717520   -1.62443371125860
O          -7.30597404818193    0.29152263078480   -0.60090496294761
C          -6.57987999169008   -0.85514435187414   -0.46193181984016
C          -5.45975461416590   -1.13819345584117   -1.29567084491194
C          -4.84670111609868   -2.30297739083110   -0.97095050752885
S          -5.63203062509851   -3.07311663238802    0.35820064621654
C          -6.79660462330451   -1.81043903129513    0.47684221572417
O          -5.09364609940351   -0.30987644078069   -2.30967630426509
C          -7.59911498622204    2.37562654112051   -1.62606490904863
C          -8.74456616666538    2.60870780911123   -0.94455473080402
C          -9.37481515912891    3.88751680017749   -0.90077488866607
C         -10.58260657529659    4.14108186982350   -0.36339991464176
C         -11.44544480626605    3.09029623202993    0.26682231346281
C         -11.11075013733670    5.55095751103783   -0.28510600525368
N         -11.19676861595513    5.97703054632666    1.09724493175284
C         -10.12499534156360    6.43635371240723    1.78512757806224
C         -10.03314121426330    6.40824750915716    3.14032830481394
C          -8.97233010204984    6.96698199192351    3.87484034046166
C          -8.85432552022665    6.87301888393277    5.23721208504964
C          -7.83775433165715    7.40655913102636    6.06360910165058
C          -7.98557308588929    7.13151712957398    7.39048962807808
C          -9.12432446935480    6.35426705029199    7.69175092280782
S         -10.01797572204891    5.99807467439810    6.23097400516288
C          -9.54069521272267    5.88158860117770    8.92178117575603
C          -8.96124632391102    6.07163681803728   10.19091505219032
C          -9.62446112430748    5.44310895221238   11.20392609116307
C         -10.76571924155890    4.70870508094044   10.80197914710045
S         -10.96994999496368    4.87573651730353    9.06661272382294
C         -11.57347792871453    3.99290629352739   11.65445458080554
C         -12.69686140572236    3.19572541158890   11.41272528331340
S         -13.49679600310793    2.50565597051354   12.82293165366827
C         -14.71818356357966    1.66654815813053   11.91173271040172
C         -14.51175692394341    1.90979152210805   10.55551595476666
C         -13.39421651554036    2.75582094470817   10.28323851712002
N         -13.33382436874809    2.86538987751782    8.93398245369382
N         -14.31384917595038    2.17183095420161    8.33904730538135
C         -15.02718954316858    1.59495573887005    9.27190545972524
C         -15.69898727829415    0.89349810925380   12.59700714598910
C         -16.68691999041177    0.20548121899442   12.01602596743629
H         -10.21964335807713    2.71572045023246   -5.92794805882313
H          -6.11167663789268    4.74686225517715   -7.95374574566567
H         -11.56228446752349    3.90538829376831   -8.08301885883491
H          -4.48681636063107    1.38117502417126   -3.91858239653419
H          -3.98805366131684   -2.74654590699946   -1.42912490253154
H          -7.56298358742580   -1.84082963875654    1.22267370182857
H          -7.13490729942252    3.16458379244908   -2.19985119064797
H          -9.21225326347108    1.78677288736164   -0.42514850744095
H          -8.82575124516176    4.70160992714412   -1.35788977886333
H         -11.06366981891553    2.81573120854542    1.25146476221871
H         -11.46459371509830    2.19120812207470   -0.34439060533014
H         -12.46710496075868    3.44695334941091    0.38218192395448
H         -12.11356631855183    5.61154867045770   -0.72100758158369
H         -10.45447027364417    6.24129937945470   -0.81891501002928
H         -11.88569920940022    5.48745514849522    1.65310142411493
H          -9.34381387056751    6.88173828909170    1.18464910247277
H         -10.82135269341391    5.92763180425943    3.70654387058588
H          -8.19538809126372    7.49553682434377    3.33888375977158
H          -7.02669079224409    7.97951202827392    5.64920653238845
H          -7.30575236953352    7.45900232314568    8.15667784436545
H          -8.07438159937899    6.66451803333899   10.32552008112473
H          -9.32363328279340    5.47775251504802   12.23631634927970
H         -11.29252977417531    4.05753150427986   12.69927006575852
H         -12.68085386819554    3.38587903236172    8.37301623610313
H         -15.86584744780265    0.98514231435894    9.00560572874857
H         -15.60219258734613    0.88698787147477   13.67524087949220
H         -16.81641941488567    0.18545903021977   10.94937718382398
H         -17.39028343476151   -0.35823800377653   12.60212665187582
