126
 SCF done       -221.210836285806          0.000688745761
C         -16.39221566740081    2.09195100417746    2.11487384466406
C         -17.01313267052777    1.48523013914252    3.17553237139805
C         -18.34867420538401    1.72866274739855    3.55516700452047
N         -19.43318719409668    1.88299115031723    3.89911447809593
C         -16.38270306434173    0.57490860801530    4.04913027899307
N         -15.91718752711602   -0.14468356127943    4.81351550904278
C         -16.95915908530244    3.12744389924621    1.26394748380258
C         -15.94478431547792    3.62391385130529    0.40756860800743
C         -16.17213347645248    4.62578135790348   -0.50405029542789
C         -17.46124723606099    5.16448072132189   -0.57501194380631
C         -18.46967179820088    4.65723533124840    0.27931891536316
C         -18.24085384765679    3.64383174169711    1.20086137423163
S         -19.98901137834656    5.46036801230136    0.02153922697496
C         -19.25829071161057    6.45522616603435   -1.21019623532346
C         -17.94508080086529    6.19984199717775   -1.42052998993357
Br        -20.29821231294303    7.73669705627526   -2.10113348112018
C         -14.68150994456686    2.90098912144289    0.66485149444143
O         -13.62289686545297    3.06462536499343    0.10029648572791
C         -15.01518615179297    1.88980036235802    1.70232535503027
C         -14.18794628621483    0.87156423335464    2.04542440054448
C         -12.81709528584608    0.75128628768205    1.57408167671268
C         -11.75955637796526    1.61874185683777    1.88174472448002
N         -11.64946627180429    2.59387165263511    2.84257820015535
C         -12.70231528912903    2.96846497313430    3.75138635537505
C         -13.32101786786253    4.31981031247626    3.40377681134158
C         -10.38526268166157    3.15106412221527    2.76807033798391
C          -9.67321459811244    2.52032298754853    1.71730789582448
C         -10.52777833518614    1.49449888596352    1.19638079407500
C         -10.32286760243320    0.50134582851593    0.25266191438113
C         -11.33802172498229   -0.40894626546054    0.02378718991697
C         -12.54931431568743   -0.29375673446682    0.68653569278970
C          -8.40402403102430    2.93259348337957    1.34174330179237
C          -7.85053589182932    4.01744964187797    1.99237042440057
C          -8.53553937658878    4.63482399878267    3.02676419741400
C          -9.78223965012910    4.19888096295643    3.48229513341347
C         -10.30538435996973    4.85950746948890    4.67054507861842
C         -10.68802712374867    4.23292957725450    5.80361550610654
C         -11.18589867311602    4.91366623224679    6.94250627184435
C         -11.68307557800705    4.29971963340105    8.05471394148734
C         -12.23761636655362    4.93247285557699    9.20068376420168
C         -12.71643353402274    4.07581155615570   10.13796182378103
C         -12.56521471090775    2.70684499103488    9.80366044875866
S         -11.77703320495478    2.54990347607660    8.24508343902405
C         -12.96885208163072    1.61679778060253   10.53872728483251
C         -13.67356503436779    1.62148827307505   11.76929609426597
C         -13.97245885758452    0.38594592059753   12.23760113477957
C         -13.50870325540597   -0.69168917497176   11.42354700205623
S         -12.68988544828717   -0.03033267618361   10.00914571320005
C         -13.63209912991327   -2.00418355492145   11.76320878725288
C         -13.17908952167341   -3.16497821544614   11.04211474704391
C         -12.82695006575443   -4.39023057241462   11.65042784217404
N         -12.76384178507891   -4.77438474053228   12.97821342934373
C         -12.95937819598059   -3.93197016897142   14.13074949976192
C         -14.41063980894389   -3.92144661381586   14.61498017602889
C         -12.30872695981887   -6.06887453784216   13.04976864260674
C         -12.04300562365071   -6.53924922467355   11.74146839279725
C         -12.39583281428894   -5.47464675615505   10.84887324168101
C         -12.32597965425969   -5.38731420616018    9.46679171101344
C         -12.68909208481956   -4.19497557327330    8.87150338755715
C         -13.09452348428389   -3.12120076178902    9.64373765174941
C         -11.48228372039962   -7.78618566609143   11.52135509839773
C         -11.15279132538760   -8.56189759660076   12.61910834792983
C         -11.40578031160189   -8.10905869114102   13.90206645728146
C         -12.02320731558224   -6.87956451884702   14.16281185828502
C         -12.37711437618633   -6.56769352985273   15.52841347608461
C         -11.57886680158496   -6.79214179271576   16.59731175034064
C         -11.99441521999384   -6.54783993312203   17.92911821657307
C         -11.18485259512753   -6.40504846757498   19.01766282571316
C          -9.75941416832803   -6.19320281916305   19.09735250208248
C          -8.99289901363269   -5.54314583195859   18.16018402741154
C          -7.60999044510655   -5.31704342083584   18.30014363654805
N          -6.47894994465265   -5.13070662799541   18.36702459013673
C          -9.54467263231841   -4.91839036864452   17.02430720824586
N          -9.97233052190800   -4.34283534060953   16.12674513354724
C          -9.34031131447153   -6.54943611572744   20.44843161688189
C         -10.49984002346823   -6.75411080974387   21.23950433885564
C         -11.70349143886558   -6.59440956246106   20.39350683229475
O         -12.86291702596242   -6.65035431735144   20.73720176136315
C         -10.43288576346916   -7.06151559881511   22.57596145186640
C          -9.16490663622661   -7.18395402802859   23.15566791306510
C          -8.01522811987467   -6.98857615280791   22.35435265301279
C          -8.08117576706665   -6.66722522403609   21.00366123010265
S          -6.55413245202116   -7.19731526584417   23.27141362747787
C          -7.49475370944540   -7.53572274492627   24.70023169510360
C          -8.83363621170811   -7.49626044975856   24.50281968330258
Br         -6.61992525985230   -7.91077825664543   26.31658769903649
H         -15.37935616556859    4.98450056721216   -1.14172873235131
H         -19.04160437449774    3.28611947498448    1.82651357143381
H         -17.34089698353219    6.71882945879564   -2.14203947659017
H         -14.58794428181082    0.01930808306482    2.58403244204422
H         -12.31202454830723    3.00921020456205    4.77025239934500
H         -13.45949225290146    2.18072962571157    3.71996218937714
H         -12.59593605605761    5.11322019455025    3.56858403988857
H         -14.18723799431815    4.50348349094335    4.03464128237418
H         -13.62715020996758    4.35098915894457    2.36206578910222
H          -9.38302181310422    0.42975120326790   -0.27231584823680
H         -11.19923935759528   -1.21027385422814   -0.68580973855709
H         -13.34429521013990   -0.99111944858851    0.46403592591121
H          -7.88002447735788    2.43107541718371    0.54315111916212
H          -6.87790431175313    4.38681967912525    1.70456799713407
H          -8.07374266202071    5.46581000921145    3.54079421544543
H         -10.27493526389303    5.94326322636464    4.66159603072741
H         -10.60655397316721    3.15508954777422    5.87970156996366
H         -11.20607305995385    5.99542625635626    6.91689506038773
H         -12.26620335772155    6.00492899541656    9.28231391499818
H         -13.17172405695112    4.38378536879408   11.06219850497209
H         -13.94065937987225    2.53740393701520   12.26522125977089
H         -14.50467962750323    0.19721677797317   13.15383388223333
H         -14.14939706536385   -2.16817470839921   12.69503209087919
H         -12.63433548088610   -2.91937785208800   13.87881357103974
H         -12.30119599025515   -4.29635487511753   14.92627756525984
H         -15.08116931287875   -3.52922708019126   13.85330569222883
H         -14.49595780923464   -3.30623127208356   15.50708759812042
H         -14.75231474373718   -4.92661775023445   14.85024824297327
H         -11.99768535605577   -6.23174869003605    8.88121791531476
H         -12.66176602115730   -4.09212885207506    7.79773697445662
H         -13.40119421308675   -2.21764335010293    9.14211090833844
H         -11.29257472364682   -8.13309893182300   10.51760005981943
H         -10.70222941463484   -9.53272597243412   12.47940761651278
H         -11.17348898170400   -8.74765610612825   14.74141358438455
H         -13.35386778340945   -6.14167588644089   15.70888770527643
H         -10.56695599420446   -7.14036848943164   16.43815666029918
H         -13.06044374759947   -6.54273169110129   18.13005642139685
H         -11.32957847111669   -7.20320396860501   23.15863057722470
H          -7.17971129117913   -6.52953852931850   20.42935161832535
H          -9.55971087050959   -7.68010252462369   25.27354762055035
