97
 SCF done       -185.884164265202          0.000911898606
C         -14.18052694010565    5.25365811666357   -1.73475287064478
C         -14.94772915331497    4.11450793427645   -1.82155799691089
C         -16.26085858295576    4.08389950695580   -2.33132955807457
N         -17.33312602094166    3.99066453166675   -2.73296341684349
C         -14.55351835615686    2.82353902122993   -1.41823962368315
N         -14.31394763601156    1.74038693868767   -1.11721164100300
C         -14.60616654003592    6.58669817645928   -2.15835862732760
C         -13.55845057458643    7.50218911607573   -1.89522156233291
C         -13.65056404085238    8.83993291681096   -2.18898061018814
C         -14.83556200801881    9.29960417707617   -2.77437947541843
C         -15.87626132596000    8.37849341638962   -3.03486342186018
C         -15.78280927055183    7.02411570538565   -2.73543885945496
S         -17.24881867506488    9.15492816631859   -3.76590840411552
C         -16.41602649799886   10.68580544500960   -3.71076458855418
C         -15.17485713448715   10.62152385544846   -3.17386931879166
Br        -17.26276503039701   12.22444085375635   -4.37069639587282
C         -12.41952819482764    6.77855311485840   -1.29206758743952
O         -11.36275637238966    7.26785291787346   -0.94190002871466
C         -12.83929956282243    5.36544584419850   -1.22013993825908
C         -12.04655460422900    4.33647452079375   -0.75433542524335
C         -10.74631030440747    4.48079302351616   -0.27956036614587
C          -9.97516251416495    3.41240493772760    0.13326722075478
C          -8.63970993127935    3.46428478416693    0.59565106493286
C          -8.10628913282777    2.24748976655533    0.90214579784957
C          -8.99884213226865    1.17222440806777    0.70202297172232
S         -10.54295192310871    1.75833715786811    0.12013084651119
C          -8.76195760213872   -0.17664173154968    0.89104921516308
C          -7.55969369809387   -0.80494214708354    1.29117865058536
C          -7.63133284008726   -2.16215822930534    1.34784591997069
C          -8.90194820464894   -2.68790017963514    0.99974432804677
S         -10.00800364139784   -1.36703430700030    0.60926741789066
C          -9.25964436880100   -4.00347898509171    0.93991492143421
N         -10.50306520395923   -4.41051513181540    0.58406346442032
C         -10.98434613597280   -5.67762464658994    0.46339306356645
S         -12.43027078935548   -5.88665922455975   -0.48478656995853
C         -12.32204888611266   -7.60053304269815   -0.25064377377211
N         -13.31637310629599   -8.40697943684505   -0.81181643332969
O         -13.22555924460529   -9.61060978112342   -0.64843626786960
O         -14.20282364609440   -7.83733251415786   -1.42594724145151
C         -11.24380949481569   -7.97359894860524    0.50666078687014
C         -10.46515105520403   -6.88567144331401    0.94293361535716
C          -9.33707978959761   -7.03958397539109    1.83729674178492
C          -8.55901335017469   -8.13503121176771    1.86267674452884
C          -7.48022115852450   -8.31590835335144    2.79165421229748
C          -6.62957069453206   -9.35362527724120    2.81872264289036
C          -6.62723699105008  -10.49376692671255    1.85120966344197
C          -5.56310811217107   -9.45362305236613    3.87826409590423
N          -5.92079313489470   -8.78503519780772    5.10502647923364
C          -5.00733238296356   -8.42780238584007    6.01451973289096
C          -5.30228245996237   -8.09720016851851    7.30651614470807
C          -4.38047358053034   -7.71421828245966    8.29025664883564
C          -3.01017405724160   -7.80862842017947    8.36832365674901
C          -1.99394325105174   -8.55117407123299    7.67287793158676
C          -2.12386940846981   -9.73351844952681    6.97602753777174
C          -1.04953174205334  -10.43201003936054    6.39080130741004
N          -0.23049521451384  -11.03980766224343    5.86173030376861
C          -3.32488597894857  -10.43169197825052    6.78506513789051
N          -4.27812943763288  -11.03905617537471    6.56990623289364
C          -0.69833406366948   -7.96896749674349    8.03299288607998
C          -0.89410098007702   -7.03677183718372    9.07999952257362
C          -2.33855674078852   -6.94999928644865    9.37526556414042
O          -2.87439936091466   -6.28639112283233   10.23673039435886
C           0.14027987102032   -6.34913677442583    9.66394510373778
C           1.43288384677147   -6.58167293556336    9.18032928564220
C           1.61680009987713   -7.49910127118030    8.12037986332028
C           0.56916597005456   -8.20290786939112    7.53698582267632
S           3.28973424199526   -7.62306054654322    7.66528479505019
C           3.71334904925227   -6.45911114604848    8.89259092174373
C           2.65869560228403   -6.00009690280212    9.60659994792656
Br          5.50847929947975   -5.96020877740966    9.11428650970989
H         -12.83396232194415    9.51177254160926   -1.97557565225423
H         -16.60475080750627    6.36409060134488   -2.95608697511302
H         -14.52354218869007   11.46932988466159   -3.06403607221991
H         -12.45101789264374    3.33164030468181   -0.76485916616237
H         -10.30766086028627    5.46742649008095   -0.24288579936638
H          -8.11564839216874    4.39952508428478    0.68001607656038
H          -7.10442526950564    2.09925515258065    1.26314562988762
H          -6.67554676339921   -0.23684400003765    1.51599923139702
H          -6.81528515201206   -2.80549039848197    1.62419154436783
H          -8.53079545624772   -4.76982018173135    1.14958912788283
H         -11.12999204011803   -3.67302934424449    0.27706761864016
H         -11.05680609793117   -8.99945531178162    0.76613310783963
H          -9.15588095051174   -6.23701579982155    2.54014070918093
H          -8.74031783878547   -8.92147927189595    1.14628033587205
H          -7.36401845277106   -7.53357511676452    3.53212946043673
H          -7.10108297452362  -10.23494502513335    0.91028496456528
H          -7.15518245516287  -11.34653911627786    2.27966320040452
H          -5.60515239565512  -10.80850361965744    1.64918718583492
H          -4.63173285791549   -9.01269693954169    3.50337771149135
H          -5.35630325816489  -10.51408648025199    4.08843620220196
H          -6.84699127550712   -8.99779803740692    5.45314879611844
H          -4.00089969178110   -8.31042173859018    5.63572518519737
H          -6.34411299863025   -8.09863203008125    7.59943593251264
H          -4.80792580563097   -7.20442283569898    9.14994387054801
H          -0.03984266464972   -5.65399045528642   10.46881611004358
H           0.76306420304143   -8.88768822156920    6.72837134779343
H           2.73909694573973   -5.28104714521688   10.40125520352484
