125
 SCF done       -205.100306754951          0.000265739328
C         -11.64729002626772    0.75797699366841    8.05125215539491
C         -12.69381150636641    0.04706412767264    8.58579584042727
C         -12.54844916985426   -1.02045094086268    9.49470728396300
N         -12.50409451840615   -1.89269393575948   10.24061837346552
C         -14.05300480200625    0.25268626594228    8.28648284146479
N         -15.18218458918386    0.33944675522550    8.08573689075295
C         -10.23727052705757    0.50217124251312    8.28638405520342
C          -9.46594885921738    1.36504657561306    7.46658648708533
C          -8.09264920741622    1.34505712848308    7.45520036053438
C          -7.44489655455012    0.43785753026777    8.29974889756777
C          -8.22207162702744   -0.41583250396741    9.12054152288906
C          -9.60953223925459   -0.40194742931691    9.12778074149805
S          -7.21990551446651   -1.45552189059165   10.08834785275221
C          -5.79242679912925   -0.73999381651090    9.38612500616428
C          -6.05022448039489    0.22770272567952    8.47439436836560
Br         -4.09793468635954   -1.33828931829307    9.92318967491508
C         -10.36480239322767    2.22926657908429    6.67873828081827
O         -10.04309822258712    3.03245417657077    5.83280081021787
C         -11.74290710836615    1.87069733928739    7.11706267545651
C         -12.86321878596012    2.47873073065751    6.66995116577901
C         -12.87719276405737    3.65576497632120    5.81708330806514
C         -12.36512309484420    4.83751078488135    6.25549364876896
S         -12.66292589043718    6.16637335868453    5.20956262344988
C         -13.48129209803649    5.11332961212491    4.09810761143929
C         -13.51042009557167    3.78008928450314    4.52891999029377
C         -13.97783334249677    2.77162328793343    3.65112884046573
C         -13.76482500524328    1.33684466059816    4.05941330801165
C         -12.38415584066522    0.84522804940380    3.62104644341650
C         -14.51960024369578    3.11786284321301    2.42273541685953
C         -14.79323623331480    2.07661638888950    1.36757393289901
C         -13.83778307965665    2.25341329805719    0.18513262352957
C         -14.69089326682936    4.49021806648641    2.09313037471126
C         -15.32090769171023    5.11238684122667    0.95339398895919
C         -15.07383715793569    6.44956205268240    0.89960706748808
S         -14.16309025530942    7.06192184681639    2.22499730681224
C         -14.08099961582117    5.46517295944990    2.89973378556204
C         -16.25322838383528    4.51231813994192    0.00695334728971
C         -17.28959829171767    3.76407848096847    0.39790621882343
C         -18.21756282996936    3.13376249961008   -0.52806492807480
C         -17.74264407000518    2.56899168763176   -1.67291307349422
S         -18.93529712665400    1.80609118278957   -2.64904716620626
C         -20.15306737151596    2.25675676322410   -1.49768432464446
C         -19.64789672215590    2.97412070398841   -0.40201634991572
C         -20.56022033620273    3.52454753991794    0.53188833138501
C         -20.01192102423593    4.37757225668844    1.64252067021145
C         -19.61157679242731    3.52151061002872    2.84911784734706
C         -21.92445763932894    3.29076037483943    0.40889745363029
C         -22.93176761059378    4.08465966476340    1.20881864246921
C         -23.03795866342954    3.76604518465418    2.70565187086078
C         -22.40222446536578    2.42590816045246   -0.61009487553817
C         -23.74350663821799    1.98325579947285   -0.92498020731674
C         -23.80238838978553    1.37133708722560   -2.14476500679506
S         -22.28441368320306    1.17499121723458   -2.92245480191520
C         -21.50670879461695    1.98727482753413   -1.59772628840886
C         -24.92408107681111    1.97286829765271   -0.08962227014152
C         -24.92144657969833    1.62115725133859    1.21710339204836
C         -26.08474802599030    1.50872148906333    2.00652063318089
C         -26.08880071739305    1.16063086941180    3.33017607350383
C         -27.22326709165248    1.00385017253768    4.16634290106196
C         -26.93190520672512    0.65299440257484    5.44794517910894
C         -25.54900097159331    0.51783304972926    5.70919940780642
S         -24.62607210588230    0.84371877361760    4.25859779687691
C         -24.94911764450753    0.18486771108516    6.90758486540953
C         -25.58977543280950   -0.13952119771873    8.12462925758304
C         -24.72964873126235   -0.43466677413527    9.13586757012840
C         -23.35800446931178   -0.35397383393543    8.78445257830062
S         -23.20760295097867    0.11096110586457    7.09894837500753
C         -22.31785048018352   -0.60932477710455    9.64241860654242
C         -20.93869438689859   -0.53709072482128    9.40031134462406
S         -20.28938047546636   -0.07428088669188    7.84890431863217
C         -18.68769799715696   -0.27993660986917    8.42608636538305
C         -18.62034416005660   -0.69871003906942    9.72135859498474
C         -17.30947121178845   -0.88972875854872   10.40882237451295
C         -19.90922686378486   -0.85162038124037   10.30725257044302
C         -20.18367046063180   -1.22815046137244   11.66677346235040
C         -19.41227738187403   -1.97841303469358   12.47607731076585
C         -19.77765057854611   -2.28336801344683   13.83227618176706
C         -19.04238610655343   -3.04576066411680   14.64099964155176
H          -7.53524011737033    2.01105130078233    6.81527633667009
H         -10.15640440021208   -1.07204566353806    9.76989272675396
H          -5.28909016232235    0.77181250641491    7.94559751036171
H         -13.83456201020605    2.14458278263702    7.01510528196699
H         -11.85830805570764    5.00971040306409    7.18514532136327
H         -14.54134501460280    0.68943960846557    3.65172870997031
H         -13.83198271650809    1.25748453731792    5.14335635362391
H         -12.30021166423904    0.84398236319491    2.53753156577447
H         -12.21040573208825   -0.16666972221868    3.98223923876249
H         -11.60874669666717    1.49535712302891    4.02061051306706
H         -15.81723973855238    2.14495213421004    1.00382486991678
H         -14.65530789262949    1.07624463613900    1.76862419202261
H         -14.01700075784528    3.19813739181126   -0.32120156313602
H         -13.97817809917660    1.44609283940024   -0.53045567374912
H         -12.80400348549610    2.24121389262822    0.52405494377314
H         -15.43142448306937    7.13639386342000    0.15674671801156
H         -16.14001997818662    4.79334552983883   -1.03174745656269
H         -17.42718855589542    3.57798752588460    1.45224773822642
H         -16.71761352983210    2.52933613693888   -1.98688847762979
H         -20.74644329510212    5.11623407445324    1.95821878593151
H         -19.14128522821923    4.92407343536824    1.27531713156705
H         -20.48679809828537    3.09316297065745    3.32718553947688
H         -19.07971614748908    4.12652460784011    3.58076633238998
H         -18.97190255817489    2.69517603382112    2.54747801096394
H         -23.90801894293519    3.93638893849792    0.74960210538183
H         -22.68933856366636    5.14509027440865    1.08971575746773
H         -24.05516187692622    3.94131329653649    3.04845464664376
H         -22.37738445094151    4.39242367982383    3.29792184074062
H         -22.79100865018543    2.72841788978385    2.90936164364587
H         -24.67599907966502    0.94988967383423   -2.60377291903680
H         -25.86911323064931    2.12294307387974   -0.59748265079836
H         -23.98072639609801    1.38912119287084    1.69500992957858
H         -27.04136658003545    1.70512352884943    1.53951488168791
H         -28.21900461055136    1.15419333746421    3.78744427846369
H         -27.67075641194477    0.49352948586646    6.21271184290213
H         -26.66063604695327   -0.15302761704807    8.21898180562152
H         -25.03380755627199   -0.70859235720975   10.13102515230445
H         -22.61230129998738   -0.91050353704942   10.63942759001826
H         -17.86047678008054   -0.06685908857327    7.77788239614163
H         -16.52910645719757   -0.38259439930785    9.84644663558363
H         -17.04864299962562   -1.94644020099855   10.46139727746007
H         -17.34280182235888   -0.48878481807362   11.41983659318858
H         -21.12570161255980   -0.87344783761632   12.06863587490284
H         -18.49183509719555   -2.41483516466525   12.12277923987524
H         -20.70559035746377   -1.85481541790456   14.19103323424493
H         -18.11503690180774   -3.48457651248684   14.31132454489025
H         -19.34020862365135   -3.25721352617711   15.65318420277246
