93
 SCF done       -198.781024311199          0.000381126698
C           0.75169366979733    1.37603772101111   -0.01344375807875
C           1.61748468957218    1.90547446716104   -0.92893634313935
C           2.69612103171461    1.19046916625034   -1.49267812251985
N           3.58099109848719    0.64534254695245   -1.97833530305724
C           1.59106099675572    3.25082599004030   -1.36080837553318
N           1.65575180639155    4.34422910423143   -1.70238843742573
C           0.83280832893372    0.05502055761459    0.59353781323235
C          -0.10080533377848   -0.01272651740472    1.65968774338115
C          -0.25759159316865   -1.13508894528855    2.43749609645320
C           0.53723656288188   -2.24720514954167    2.14315356760567
C           1.46342523599246   -2.17291928793154    1.07326507847378
C           1.62776493388446   -1.03526214728139    0.29244322979399
S           2.33454769090515   -3.66205934020685    0.87903052011249
C           1.45756121950808   -4.35600331106628    2.21725992990429
C           0.55757230322474   -3.51600437721153    2.78302912477944
Br          1.81052251305855   -6.12113569148049    2.73947053139117
C          -0.82497383558372    1.26403414275578    1.75576226938198
O          -1.63911558193816    1.57747798997677    2.60319164688595
C          -0.37116646879352    2.06903645778576    0.60571326531633
C          -1.01407498793011    3.14333218612654    0.07231672696857
C          -2.16989958586106    3.81355515244990    0.54303158681510
C          -2.91925820742885    4.69238292321993   -0.23250525022834
C          -2.57669401743995    4.98259063747206   -1.65187100396568
O          -2.28130038478674    4.13686917516584   -2.44794275056695
O          -2.61482022535748    6.28128168240827   -1.99725458122744
C          -4.07662472440405    5.18841198565875    0.43684804794024
C          -4.09585148305266    4.74429513941584    1.75121092973136
S          -2.83434736029172    3.68772550117180    2.15087685372249
C          -5.12023358369274    5.90535237643715   -0.22913397249826
C          -6.41847195842084    6.04424463270123    0.16493479204642
C          -7.45678042350761    6.58457637224196   -0.65070915386246
C          -8.70831863178925    6.41225166986052   -0.15383165139622
C          -8.73735583247367    5.76476091992008    1.10492639348770
S          -7.11610479864192    5.42744235945720    1.65794863358760
C          -9.85091991569421    5.33939054450253    1.80391194802877
C          -9.89463667300644    4.73407313767339    3.07448902687297
C         -11.14268101858796    4.30333736254728    3.41160905225389
C         -12.12207800132696    4.49446402504680    2.40316512613622
S         -11.44451060202268    5.37097117639791    1.06289080820120
C         -13.37576217362373    3.91158133904115    2.48996696452985
C         -14.37322692584419    3.72062128302849    1.53339009681521
C         -14.40145732286584    4.26779000300434    0.21709935373406
C         -15.33221105282704    3.80896914750976   -0.78475999738064
N         -15.34366955568257    4.39017250008806   -1.99488240098161
C         -14.47202318298696    5.33107407817102   -2.26577729642180
C         -13.48979301931000    5.72141922226719   -1.31090103496236
N         -13.50970019663358    5.19830760734975   -0.09619912310638
C         -12.46676657645323    6.64017486583289   -1.62952471856918
N         -11.61685110353178    7.36001868678867   -1.90518678602983
C         -14.51253689454165    5.97466106388120   -3.53039265860753
N         -14.50686768123950    6.52266576717832   -4.53559794772462
C         -16.18244355724676    2.70397626286696   -0.55705898347225
C         -16.25187301957890    2.24311068730814    0.77998678718458
C         -15.40756836449682    2.78168559030054    1.81433043481423
N         -15.64476831612337    2.22184072708389    2.99382008242330
S         -16.82062158540081    1.13416006111478    2.83579986720923
N         -17.07397273839108    1.30928295713961    1.25317833545415
C         -16.90089030618380    2.12627224281089   -1.63698899909849
C         -17.30342597749955    0.83224053890177   -1.77604179146605
C         -16.93754412891900   -0.36743285210239   -1.06046217942801
C         -15.75935499700085   -0.59909079216372   -0.39474303173656
C         -15.45291297586742   -1.79735047400995    0.27908227924229
N         -15.15854287658895   -2.73120771840268    0.87941136657056
C         -14.67805163090007    0.30062510727237   -0.34917198218616
N         -13.74170156390862    0.96546057714247   -0.30016981550689
C         -17.92814645152895   -1.38772613735033   -1.38203953734319
C         -18.75090917773151   -0.90726732037746   -2.43194341374443
C         -18.35247813134917    0.47699265047785   -2.76811043308758
O         -18.80545277996086    1.18569595940728   -3.63641718290624
C         -19.74166752568102   -1.67060857592569   -2.99892260386288
C         -19.93583782602684   -2.96411013478367   -2.50100894938232
C         -19.12134590054117   -3.42638612812682   -1.44010088284631
C         -18.11413690549496   -2.65749821688919   -0.87032790039542
S         -19.53568073393791   -5.04859173938895   -0.97558441093457
C         -20.77497874859888   -5.08687613186670   -2.20171013666449
C         -20.87797827079081   -3.94349072179076   -2.91967776068961
Br        -21.81407545876919   -6.63300985657540   -2.41703465723065
H          -0.97364378320846   -1.15600896869398    3.24398125392335
H           2.34126511072445   -1.02698395021300   -0.51471477366120
H          -0.06799317846748   -3.77996595133361    3.61604667020952
H          -0.66827397285410    3.49635917496102   -0.89199136996043
H          -2.75508414717433    6.87054263875358   -1.24370858916769
H          -4.82339770704351    4.99354520606726    2.49739471662618
H          -4.90489428577843    6.26882660343038   -1.22566247679003
H          -7.23744074540375    7.04487790225064   -1.59742768972543
H          -9.61433123049699    6.72014563186365   -0.64773956807471
H          -9.01855468458041    4.63058367134311    3.69156273044096
H         -11.38474502763627    3.80718636460552    4.33488510658948
H         -13.57317828109118    3.39858384391395    3.42472135804808
H         -17.16884045155949    2.80139717052928   -2.44316551681702
H         -20.34575053717865   -1.28576921890388   -3.80548067135649
H         -17.51947267508768   -3.04999584813462   -0.06215325491547
H         -21.58705550941958   -3.79523892746149   -3.71349885723080
