98
 SCF done       -183.178839548455          0.000937755797
C         -18.85637423190054   -5.33290451176873    4.71646145047809
C         -17.95458448431684   -6.32614106505716    4.39900566906664
C         -18.13829317405662   -7.68642638837644    4.71193840250109
N         -18.22571999864835   -8.81177378924996    4.92824822659164
C         -16.73341112995206   -6.16024009876530    3.71748644825523
N         -15.72334127402480   -6.14198756352878    3.16710820069712
C         -20.12387982905149   -5.54489225957282    5.41605379928714
C         -20.77846306013571   -4.29704291907297    5.55419343553695
C         -21.99914663765529   -4.16406705495090    6.16642932965730
C         -22.60727988771594   -5.32044627120233    6.66925089990116
C         -21.94568956054240   -6.56086854966372    6.52878815413196
C         -20.70854054786632   -6.69513044134446    5.90837767065482
S         -22.87137193217276   -7.86099435416129    7.21921058397404
C         -24.11796163249326   -6.73218804042164    7.67919452507754
C         -23.85741424732464   -5.44937566403123    7.33561603321247
Br        -25.64836147944132   -7.35543327893879    8.56903840844154
C         -19.94097415479130   -3.23964635742409    4.94347282382301
O         -20.20811101324264   -2.05370467524966    4.88994100646863
C         -18.74756785942339   -3.92946526189998    4.42950378021105
C         -17.70221113419568   -3.31034517214821    3.76827069295407
C         -17.60121375872172   -1.95638203387616    3.48489145772551
C         -16.51620047633854   -1.43881541513670    2.79374531759546
C         -16.27540383419366   -0.09804653800540    2.42965499636365
C         -15.11274319153915    0.09241107999327    1.73166085829202
C         -14.38674354910291   -1.09211671986894    1.51728948949487
S         -15.21452923696434   -2.45721629367547    2.22809125403430
C         -13.18648034569803   -1.30084766212566    0.85241663168174
C         -12.33286164633106   -0.38620949479023    0.20417084961008
C         -11.23087900638670   -0.96868844578238   -0.35478394792189
C         -11.14834381826245   -2.36660053780756   -0.15720399783423
S         -12.55242662025709   -2.91908077086326    0.73351631445530
C         -10.21058646680005   -3.23329427104672   -0.67214934083322
C         -10.10410912478026   -4.59637087003142   -0.35924793411999
S          -9.53896702056762   -5.71116898951495   -1.58944852328364
C          -9.80054806459199   -7.06521316458033   -0.54563192962923
C         -10.25679215025558   -6.66536632576960    0.71106764791177
C         -10.40074417914281   -5.27486359051951    0.82930229623777
S         -10.64080446687806   -4.42942417280848    2.35742783342840
C          -9.90793852441421   -5.64860752453933    3.51487154402390
C         -10.98139207796328   -6.65680856297200    3.83448419225327
O         -11.46356300397529   -6.78608469496810    4.92510611360423
C         -11.46188677979655   -7.44712315529076    2.62492018912934
O         -10.47089001641148   -7.63745133246431    1.63651071931789
C          -9.58802787469313   -8.39704852787690   -0.94673081320734
S          -9.92527336819059   -9.73721614230088    0.09713243758839
C          -9.46337093635611  -10.87721522251347   -1.13325590101488
C          -9.08598485721025  -10.22904025429924   -2.30733246206801
C          -9.16479239937709   -8.82670601265909   -2.20166192030279
O          -8.96871493495967   -7.91322071585675   -3.19148226151590
S          -7.51455849830070   -7.88315577133370   -4.01111573199436
C          -7.71058031310861   -9.39769784953646   -5.00117023262305
C          -7.59429221949889  -10.64668156032441   -4.13097761204339
O          -8.76742431232945  -10.96968402977783   -3.41477783527921
C          -9.49741910282997  -12.27913244530620   -0.93213069366411
C          -9.89051007876013  -12.86186504867752    0.22480469147245
C          -9.92996602958652  -14.26155234978333    0.48528178567738
C          -9.57867398059806  -15.31837642624857   -0.35061524052157
C          -9.78288886898005  -16.54016899153321    0.34830012641398
C          -9.58826009888242  -17.85153721819629   -0.02285468453494
C          -9.89056815816878  -18.84753115441202    0.91913082367557
C          -9.80388419829699  -20.23456903409070    0.85574933702654
C         -10.23775444089994  -20.78589818354287    2.09802104841693
C         -10.59298799304103  -19.73614850693824    2.92975689498366
C         -10.39147197620489  -18.50543728031765    2.23427381621801
C         -10.58656376381915  -17.19984096185208    2.60763850163488
C         -10.28217845445792  -16.19934573268613    1.66491705175278
C         -10.36516696579876  -14.81726995932584    1.73048555449492
C         -10.30469083994944  -22.18345908514127    2.45297614720475
C          -9.96371359805651  -23.20028947043839    1.66635547594178
H         -22.47334051165039   -3.19907565008600    6.25447979979548
H         -20.24646450864053   -7.66463995280795    5.82765366294247
H         -24.51725046335549   -4.62641399660938    7.54178754956857
H         -16.88304899123168   -3.93532378345507    3.43267097877840
H         -18.38485466771362   -1.28398571834972    3.80104289939375
H         -16.96324132668997    0.68623841538108    2.69149514830298
H         -14.77001237836550    1.04666062273627    1.37286879694951
H         -12.55056305240403    0.66590484506557    0.16240574053454
H         -10.46662145387851   -0.43368329448985   -0.89048618637771
H          -9.55152854717402   -2.85738330014697   -1.44350055235171
H          -9.62185433059500   -5.09233411236724    4.40607828088103
H          -9.03504544469760   -6.10231521876473    3.04797164022827
H         -12.35112527981374   -6.94222648931223    2.22120760292930
H         -11.75902858858524   -8.44853808365569    2.94692252059108
H          -6.90726268643944   -9.37009623187603   -5.73407691505005
H          -8.67696996045134   -9.35656259585530   -5.50400941624727
H          -7.42762445783813  -11.51923676991060   -4.76992176353679
H          -6.74182970203012  -10.53742547658841   -3.44608084840551
H          -9.18384670519512  -12.87408888396408   -1.77781533888159
H         -10.20736358749452  -12.21743841116392    1.03640551704215
H          -9.21297668593224  -15.24100707582286   -1.35735904333497
H          -9.21622543834011  -18.11441938801058   -1.00332507172619
H          -9.46507213331416  -20.80130249259202    0.00784796995759
H         -10.96145087594618  -19.82349688810053    3.93578103262200
H         -10.96035747421939  -16.93610814564562    3.58707899270506
H         -10.70045182878177  -14.23841897211640    2.57258302768536
H         -10.66738466000480  -22.38067215019754    3.45422921446103
H          -9.59721464974630  -23.05503925053112    0.66471473104600
H         -10.03945671886422  -24.22027041209067    2.00086015347940
