104
 SCF done       -201.534416203721          0.000948083055
C         -14.10087880358927    0.32538545298364    2.65470124518195
C         -13.33988159687156   -0.80189578029637    2.48200516092091
C         -13.72742777878527   -2.08730687073640    2.90836278878746
N         -14.00867825793461   -3.14629155815833    3.25053494831245
C         -12.14350282560742   -0.79247085372676    1.73780832766834
N         -11.22403770684880   -0.83818978774064    1.05169804695596
C         -15.47459403840579    0.38910496078487    3.12839365879392
C         -15.98001585518464    1.68515736610741    2.85523609305514
C         -17.26784238090030    2.05070235490735    3.16131669191298
C         -18.09202104049179    1.09492187027691    3.76614479434275
C         -17.57409796803244   -0.19356084797296    4.04025726356386
C         -16.27219760857000   -0.56610098071418    3.72811767912210
S         -18.76055024581727   -1.21164665973404    4.79756465867171
C         -19.92163854472458    0.08742986439916    4.73397355977861
C         -19.44703560979273    1.22627131801622    4.17536422330746
Br        -21.64960951895387   -0.18163446109315    5.41110436706101
C         -14.92143708812725    2.51228160118278    2.23770250378966
O         -15.01194453316335    3.67769306588765    1.91044730598633
C         -13.72057728991140    1.65074608782196    2.21434496592549
C         -12.43566855909331    2.10808380917840    2.10351737845546
C         -12.02490446851705    3.31399669178729    1.49679948752485
S         -10.62718060090747    4.14706263439524    2.12034659847577
C         -10.63907684407650    5.28573216861444    0.80574452715331
C         -11.69516085910947    5.02098260369117   -0.06310886675065
C         -12.47266623573097    3.91827056511024    0.32696990474161
C         -13.55907122105927    3.38026680424837   -0.53497153021016
C         -13.30645652416499    3.76836134450151   -1.98562359729402
C         -13.21006767325367    5.28363449310250   -2.08641692994921
C         -12.01997685833289    5.84183691086924   -1.28307357042530
C         -12.40692781093319    7.22296104456941   -0.80538708735220
O         -11.85673069535649    8.24654826210278   -1.09731118458822
C          -9.58607817698404    6.24407976928542    0.81904603482940
C          -9.25505728423946    7.14261295099508   -0.13405761780831
N          -8.22158380466718    8.01553519855193    0.02528980119726
C          -7.94293343777270    9.01101250021251   -0.84475599877281
S          -8.48512323540996    8.91048168240996   -2.49294982294344
C          -7.67502089169512   10.40540217445230   -2.84665888592152
N          -7.76116380753685   10.90303442615508   -4.15163135550564
O          -7.19929397770835   11.95535806384493   -4.39467151359837
O          -8.39451559886924   10.23596064125636   -4.95193535210573
C          -7.04354386782326   10.94788187040992   -1.76434054466284
C          -7.20359051361601   10.18404164470160   -0.58680290424217
C          -6.74049826883799   10.66566329357600    0.67433017647071
C          -7.05082071260675   10.16935504913093    1.90080126917653
C          -6.53778836057928   10.65782343320773    3.11676713531519
C          -6.67245831175586    9.95458491818289    4.28607625631270
C          -6.11217518337030   10.22906792285811    5.55764560478318
C          -6.20767018746463    9.19907718167843    6.44427529377091
C          -6.84410450782016    8.05107787460513    5.91424007585956
S          -7.44655813526472    8.37244282453151    4.31517526947856
C          -6.85902161748166    6.76459212458483    6.42005732885083
C          -6.22698619381276    6.26483219962988    7.57634753015601
C          -6.15317370915892    4.90413229809374    7.60728671325455
C          -6.69796374214945    4.26458564602270    6.46749964833470
S          -7.46788749450142    5.43961119791672    5.44196683931711
C          -6.65457873131816    2.89880315307663    6.23456603052368
C          -7.01690759563366    2.15292011002203    5.12308808101146
C          -7.25658401456750    2.42824432095510    3.78100399930820
C          -6.94708739184867    3.48405350676648    2.88155575682346
C          -6.08774994628650    4.56368621470210    3.07112977354432
C          -6.16750199970854    5.71403103352836    2.28142976313026
N          -6.31845029147859    6.70700819414034    1.71316752024288
C          -5.08314007643256    4.58455418369184    4.05119988415043
N          -4.22310291686468    4.59867153143933    4.81345603880295
C          -7.62174662956859    3.21245335684786    1.61103189197381
C          -8.30426027498126    1.97606300059796    1.70715722909622
C          -8.07189812705822    1.41852196972552    3.05420605671846
O          -8.49988403542365    0.37726912831096    3.50334755725613
C          -9.03549332382436    1.44538895126626    0.67431052178462
C          -9.10762326106484    2.18441269398012   -0.51332579227677
C          -8.39204073244864    3.39665435937687   -0.61474099267770
C          -7.62536144983870    3.91406369161827    0.42263420966486
S          -8.60960880943625    4.14262047684246   -2.16901812897130
C          -9.64139271137215    2.82179902650405   -2.65988417744180
C          -9.81875408532085    1.87759379597468   -1.70661249058775
Br        -10.37765341906032    2.82958391967844   -4.39013385549612
H         -17.63150913467717    3.04204803577669    2.94072450673882
H         -15.91509911011784   -1.55642715785420    3.95841876623505
H         -20.02726166736350    2.12311067925431    4.05707778385804
H         -11.64381503800160    1.52070656579159    2.55762201776993
H         -14.51341893983511    3.80074006311391   -0.20176334802026
H         -13.62529075982294    2.29584714005740   -0.41663679987081
H         -14.12076739804734    3.40966959555779   -2.61538752862489
H         -12.38194934694507    3.30859669558799   -2.33354632581803
H         -14.13998493773082    5.71346564781502   -1.70529078286484
H         -13.10268578179297    5.59122796946818   -3.12679672055787
H         -11.13904552204576    5.90354146410661   -1.92986820492358
H         -13.28599984737281    7.21075776141492   -0.13467928953877
H          -8.96957753549557    6.21080221098695    1.70939475375371
H          -9.81123092474179    7.26872728851118   -1.04755005450949
H          -7.56812863112102    7.83512372070046    0.79726276199223
H          -6.51005271224709   11.88013338786363   -1.81385740489551
H          -6.10185469110042   11.53801078254364    0.62058623216500
H          -7.72330536633505    9.33024554655189    1.99462325205494
H          -5.95832388049528   11.57067023470168    3.12663523709431
H          -5.62147205416457   11.16402501468219    5.76340287925918
H          -5.80352440307141    9.21450259028228    7.44017120415749
H          -5.80768704350847    6.91376602846257    8.32343794891066
H          -5.66524374327376    4.33989885078628    8.38145839280134
H          -6.33052847856596    2.31998562026128    7.09211542247083
H          -7.19656467280625    1.10107523975802    5.33954210925270
H          -9.54641172189497    0.49944391799185    0.77475160360353
H          -7.07594656391178    4.82805160783253    0.27763749870136
H         -10.41934220634938    0.99498652458392   -1.83067917520128
