94
 SCF done       -192.875452575280          0.000750160120
C          -8.15198390615023    5.58454194264128    1.58206450931899
C          -7.28497509472113    4.86996339755840    0.79709127666774
C          -5.88218106820011    4.99219347942088    0.85690970105542
N          -4.73831923168170    5.08540212151589    0.82559888963267
C          -7.68170409078663    4.00752408680354   -0.24215268671985
N          -7.95627269813438    3.31095331188192   -1.11372141802085
C          -7.78084718611313    6.51657242678623    2.64005141926371
C          -8.95300789465936    7.13792885258983    3.14570085790725
C          -8.91970241250686    8.08411914368023    4.14155151828263
C          -7.67166974979214    8.43478367287833    4.66630316105810
C          -6.50842650309990    7.80585678129945    4.16039151836592
C          -6.54221718209214    6.84795479093446    3.15406833563577
S          -5.07486792491589    8.38725752845892    4.94882547059579
C          -6.04169520317642    9.45450491527499    5.93201187049385
C          -7.37154732505645    9.37940914984791    5.68500018015990
Br         -5.20629923162765   10.56531296350127    7.18971920641357
C         -10.11696859081973    6.61630002495172    2.42172679383164
O         -11.29430853433059    6.91587191516523    2.56807120261287
C          -9.59083158319770    5.63664633499756    1.45933928864659
C         -10.40419943259753    4.99871426513074    0.56533105712150
N         -11.71993469124017    5.26908669710408    0.51105483961720
C         -12.59335317965261    4.84568537715314   -0.45073859922497
S         -14.24512683217306    4.58772384397950    0.01798297164792
C         -14.59748835781460    4.00567433491331   -1.57481605274099
N         -15.91637452215957    3.61248651460417   -1.85930620810629
O         -16.15189262611825    3.20250691999277   -2.97777857661825
O         -16.72234796565256    3.71551216344387   -0.95357746792923
C         -13.51101450601984    4.01036845668006   -2.40478023684564
C         -12.34770716072039    4.51941279245453   -1.78945773585821
C         -11.12965137945893    4.70789644313390   -2.54399696438794
C         -10.17682506469466    5.62489252205793   -2.28924351844788
C          -8.93491783229089    5.69592099088562   -2.98068761777810
O          -8.70166492562702    5.01736346791817   -4.13112628582672
C          -7.76141974028792    6.30554221849744   -2.58504270376932
C          -7.13823797825799    7.09343533443466   -1.52042004915086
O          -7.60732483180269    7.57590106041236   -0.51644023817485
N          -5.80583236475296    7.16516004654469   -1.90088566346288
C          -5.49262776535714    6.50034755515241   -3.08840335480287
O          -4.38812543033908    6.43468696144209   -3.57068335682664
C          -6.76927709516450    5.94971834952357   -3.52963740316495
C          -7.39290827982021    5.15405872293556   -4.48441854167808
C          -6.90988937812621    4.54883300292162   -5.66229643381450
C          -5.57891931666574    4.59530396797292   -5.97414938932739
C          -4.94051030352465    4.03564845814735   -7.08681981792446
C          -5.44283229054189    3.61760041194829   -8.33109466655440
C          -6.72572464801745    3.71200144213855   -8.90473434394878
C          -6.93315695965134    3.21190472669698  -10.15954440766441
C          -5.88730181572198    2.61394826020693  -10.89632015635926
C          -4.62129020882735    2.53212435491153  -10.38824900696722
C          -4.36965446577915    3.04614105176403   -9.10451693557365
C          -3.18584967922615    3.05699485483205   -8.34474270406781
C          -3.48630556802364    3.79298357959621   -7.11375145786462
C          -2.58951500515794    4.33719681054761   -6.28180463325585
C          -1.96425305254677    2.49123511377734   -8.72892444381348
C          -0.92678355862761    2.05398338251033   -7.94194652613708
C          -0.86448083631217    1.68422621485783   -6.54898580422458
C          -1.90964983876291    1.24095267635941   -5.77546808022404
C          -1.76714990056637    0.79469026419415   -4.44773580064025
N          -1.69969024107980    0.43586627841381   -3.35899372755638
C          -3.22331956304149    1.07513584501172   -6.25546110855784
N          -4.29534403433407    0.86183317950737   -6.60777528427141
C           0.54703958594567    1.59676553674909   -6.18427179289268
C           1.32602352183511    1.69238992160889   -7.36516577371624
C           0.42842290525330    1.90578084703621   -8.52081204621063
O           0.73307019317265    1.98779116079154   -9.69116874492365
C           2.69585039421389    1.59963541427379   -7.35235004988642
C           3.32626208832545    1.41586215218178   -6.11632395585620
C           2.53983857843127    1.33922186091769   -4.94257122256496
C           1.15253624786842    1.42455016919461   -4.95531851241374
S           3.52286110937047    1.12263299703869   -3.52664900987580
C           4.95751664575748    1.13104759939702   -4.51760370927070
C           4.71549821839885    1.29090860537083   -5.84019035656773
Br          6.63918396674675    0.92958366666998   -3.71191010272825
H          -9.82677222832971    8.54352651843148    4.50197299525290
H          -5.62884609482552    6.39717569497820    2.80356887748540
H          -8.11091468780781    9.96634263908991    6.19864262767754
H         -10.02589027514995    4.26522783644777   -0.13159280419949
H         -12.05586912438301    5.87853443357059    1.27319161550110
H         -13.56157872307452    3.68864097477748   -3.42950606479545
H         -11.01074179050726    4.06015651376336   -3.40138340087838
H         -10.26057600402796    6.33018537962368   -1.47544203837014
H          -5.10118823293652    7.62386977127279   -1.34058739098155
H          -7.62446808374717    4.00324997722911   -6.25688364075631
H          -4.93360613009178    5.06327137571848   -5.24316517744017
H          -7.52928988513737    4.19090178355793   -8.36925929493623
H          -7.91220478448772    3.27609017467314  -10.61062420009256
H          -6.10054830399996    2.23220287766529  -11.88358544085871
H          -3.82023319901255    2.09215253730168  -10.96203047985775
H          -1.53096049084884    4.20904368835902   -6.43830483333052
H          -2.87647263327503    4.94624352003563   -5.44074308649155
H          -1.77834725323071    2.41096315745379   -9.79621013315126
H           3.26548063819542    1.66451327227357   -8.26602575212955
H           0.59294305933945    1.36551908515052   -4.03650110552816
H           5.48317880982342    1.31947310558612   -6.59168065683771
