92
 SCF done       -193.120513216867          0.000669044168
C         -11.24075164664989    4.03578262120931    3.31204096699394
C         -10.88840750456490    3.45795719970689    4.50297523674700
C         -11.64466256934685    3.56219884662930    5.68886662778402
N         -12.22001952072261    3.61694456977004    6.68020211997949
C          -9.71942521756784    2.69173159600158    4.69058991076978
N          -8.77612717421208    2.06590188560329    4.87961394053887
C         -12.43294110117519    4.84480311160225    3.07121832850598
C         -12.43041265922665    5.27846924502769    1.71893912196912
C         -13.42691060573907    6.06433628819554    1.18903677166374
C         -14.47704879050358    6.44065783583835    2.03212683822238
C         -14.47459966816659    6.00016703182587    3.37801906200659
C         -13.46611369099708    5.20607915867437    3.91336920746273
S         -15.86801212732620    6.57270316910904    4.23963318982060
C         -16.42848611427236    7.38755343865766    2.80303084984340
C         -15.61322690265288    7.23880660627916    1.73071245552542
Br        -18.03371137023007    8.35564444948798    2.85392458198318
C         -11.23136864047855    4.75542082731449    1.06037538902052
O         -10.87637818660516    4.94236068501603   -0.10489474246051
C         -10.51189440300565    3.97545225583008    2.06366798386353
C          -9.34542291909007    3.31447033454917    1.76215028554207
N          -8.82754023182151    3.38150789602113    0.53020002264471
C          -7.73062763827978    2.72281727794155    0.07417116210570
S          -6.90697690983888    1.55927816088009    1.06927866448725
C          -5.86329096816101    1.19025822147608   -0.26274791222827
N          -4.86474488953355    0.22004274454666   -0.06481699352028
O          -4.13988462753058   -0.03819141399792   -1.00400919984064
O          -4.81089518723237   -0.28665097520654    1.03929160994635
C          -6.13874443779919    1.90881799398594   -1.39161668156386
C          -7.20225308432820    2.82115036727347   -1.21826487270887
C          -7.61320599749209    3.69272464937305   -2.28550197150941
C          -8.23317693747826    4.89026382812558   -2.19629882149450
C          -8.51741400640662    5.67593144598048   -3.35384268515602
O          -8.15952900824147    5.18495507127307   -4.57821541354984
C          -8.40197808151030    6.09284904373733   -5.50327196592160
C          -8.93053352940653    7.22627455663409   -4.93148158934119
N          -9.30208178162709    8.40740037745893   -5.60043891403051
O          -9.24603435098787    8.41460617609246   -6.81061403960824
O          -9.65616439869435    9.35257641251075   -4.90770953748139
C          -9.02905028986780    6.96708786885095   -3.51958045067982
N          -9.52020352471239    7.87982606567377   -2.64201933777715
C          -9.99394017668645    7.68207942931039   -1.39218347245699
C         -10.35467000595208    8.71256121374926   -0.57201328414425
C         -10.92649291622889    8.60995761220610    0.72161020073971
C         -11.18211134513096    9.80841128900254    1.31097272489610
C         -10.80999463760768   10.92770034815822    0.52902401633029
S         -10.14598772935425   10.41267582992682   -1.00039723126631
C         -10.89446458071538   12.26446878064619    0.87412474942456
C         -11.41330589164173   12.81775930228021    2.06445263829239
C         -11.31659557978085   14.17607150224111    2.12432344564510
C         -10.71552142531371   14.76352256579275    0.98749367781327
S         -10.28700752104060   13.53093425225841   -0.17186236945075
C         -10.44246461910540   16.10523918481979    0.81127670755030
C          -9.84603331277735   16.63574998734806   -0.32802866339994
C          -9.43295812938180   17.93479398532348   -0.52902500165349
C          -9.22480425626648   19.02075225951372    0.38833089801219
C          -8.91056111613449   18.92819237475399    1.72555495383444
C          -8.68402051595253   20.04075869467232    2.55811263533781
N          -8.51281397397674   20.90937910577879    3.29019479708553
C          -8.66170767701753   17.71811241955338    2.40182390625190
N          -8.39764158569009   16.76845034673477    2.99190559679301
C          -9.17162124852472   20.25317209072335   -0.39818842488074
C          -9.14073564979435   19.91032716360357   -1.77300511473381
C          -9.24093114121771   18.44023481682374   -1.90625628588619
O          -9.21413775274787   17.78754724971061   -2.92722813435822
C          -9.04770280029370   20.85320945054465   -2.76620931472719
C          -8.99447585468379   22.19937204558521   -2.38598135096301
C          -9.04134624999016   22.53104919487705   -1.01225295117570
C          -9.12635571638849   21.57584048065558   -0.00538144923896
S          -8.97560456946013   24.25016871729963   -0.76658915796469
C          -8.88099944778455   24.49594692707961   -2.49028869401844
C          -8.90050982326396   23.35204498267327   -3.21389550804520
Br         -8.76987478806548   26.24064719033056   -3.17100745232370
H         -13.39964906130847    6.37935818007635    0.15738873289692
H         -13.51043375970584    4.89601977438065    4.94385795462266
H         -15.80599001531165    7.67223295413403    0.76647929988701
H          -8.80840060362639    2.72619978918772    2.49437559988053
H          -9.39123608225854    3.92866023698335   -0.14066467325878
H          -5.57900234054348    1.79478977116216   -2.30241129504305
H          -7.32676839082515    3.34893129240350   -3.26993175866249
H          -8.46697632745118    5.34765721745501   -1.24957763301909
H          -8.17175396841864    5.87123812665180   -6.52710825984887
H          -9.62505785381545    8.81582546688388   -3.04617560484904
H         -10.13874491352686    6.66385450277773   -1.06245949898236
H         -11.13036216012984    7.65425353989309    1.16921389170861
H         -11.61417246192682    9.92040700847228    2.28871817733772
H         -11.84020243640703   12.20774046103544    2.83995284610232
H         -11.64389931105502   14.77539817337093    2.95476297091655
H         -10.73262798267709   16.76317953160062    1.61787608286642
H          -9.75665206431742   15.98759003422377   -1.19510836109307
H          -9.01589635933243   20.56401301963041   -3.80492979420157
H          -9.16280318217606   21.87736556140046    1.02831764759166
H          -8.85129799118351   23.31953763973943   -4.28699260553754
