116
 SCF done       -205.878096275715          0.000385048938
C          -4.61710289385132   -0.50608120125738   -1.15851114710110
C          -4.32302587336549   -1.43893823675264   -2.11762349415223
C          -3.01190627353032   -1.78656832353755   -2.50395796130985
N          -1.96678791848117   -2.09772284313887   -2.86206637371168
C          -5.28874315078841   -2.20797761060337   -2.80145875432007
N          -6.02131591496268   -2.88900374922025   -3.36503093488028
C          -3.65327064112877    0.20304130798693   -0.32813098137545
C          -4.35931757203312    0.91549479310891    0.67229446313380
C          -3.72516297831717    1.68352507641731    1.61824716189170
C          -2.32883798329870    1.75662659441229    1.57116511820113
C          -1.63303978700392    1.04662322292529    0.56333659277527
C          -2.27386510715116    0.26484333516052   -0.39011382637752
S           0.08331059727317    1.28888654377429    0.67977025721699
C          -0.15280256795590    2.32590743178779    2.06136832635935
C          -1.44948381727468    2.48250281372959    2.42012098485477
Br          1.33325218898246    3.10418687099813    2.89958900489882
C          -5.81055389376476    0.70672429775781    0.49885522139581
O          -6.69063717769130    1.18407838311051    1.18571262003261
C          -5.94582069927987   -0.12423488065930   -0.71729309980410
C          -7.09147277056427   -0.29862803716264   -1.44074036599147
C          -8.41430345355113    0.03035188632659   -1.06233300565934
S          -9.48432757255816    0.61016493326534   -2.31729656260807
C         -10.70866457909258    0.93586007823378   -1.16653097801965
C         -10.36183861387973    0.59173428341676    0.10539263232365
C         -11.26115642082026    0.74222903393196    1.28544064580270
C          -9.05114027816605    0.03921537587555    0.17616681264652
C          -8.52972288299805   -0.55337963338518    1.37988205505084
C          -7.80542306735275   -1.69114788293165    1.41125029261077
C          -7.31468503475518   -2.32106953120760    2.59568226347421
C          -7.20303428696760   -1.73512627935149    3.81035631406021
C          -6.75102491398873   -2.43939513419274    4.95701086625971
N          -6.45418093552092   -3.70430107188718    5.01051652493043
C          -6.08163266705962   -4.07227692926020    6.23952712475662
C          -6.07546308865631   -3.07280616304928    7.19075808740516
S          -6.58449409553971   -1.58568782361464    6.51643837086135
C          -5.79292231544522   -3.66083618675970    8.51465447223705
C          -5.00006654075826   -4.90234294998328    8.08143318768482
C          -5.71618717742901   -5.42756506654215    6.80831872070478
C          -4.84283981330118   -6.23175115016921    5.83362962570315
C          -3.44139673280107   -5.67502436678917    5.60929496823811
C          -7.00320073481956   -6.20169718880765    7.16077876212585
C          -7.83837194519222   -6.56973237722159    5.93917580357252
N          -4.80199203563746   -5.65589869176611    9.29667556286133
C          -4.61296271073809   -4.76953099473381   10.42802537019495
S          -4.71802439769637   -3.02587593464617    9.84578835960632
C          -4.43937287842761   -6.94971566832102    9.29210233273456
C          -4.10661675865119   -7.77050248071297   10.33253023776182
C          -4.00614366002864   -7.59770719383701   11.73657410340162
C          -3.60044477785956   -8.71098044636081   12.40688462147553
C          -3.35132812644850   -9.83181358072668   11.58098976141247
S          -3.67915901776959   -9.44109994794413    9.91784770589800
C          -2.87461958067431  -11.07801497672306   11.94332425415455
C          -2.44714576931745  -11.54808549237361   13.20021936593256
C          -1.91610476385420  -12.80416865991924   13.15853372714795
C          -1.87450132790597  -13.38454114068641   11.86833319944640
S          -2.60857229468760  -12.30347027196561   10.72023104117189
C          -1.39528167643521  -14.65574428271942   11.58274754260284
C          -1.27895824337155  -15.31623366492889   10.36782041355074
C          -1.34192110402184  -14.87910217262432    9.05075757404886
C          -1.73033899583169  -15.85788745811361    8.00993372563886
O          -1.84638964200445  -17.05926376180259    8.13853330070294
C          -1.99501693277015  -15.05684959915682    6.79345026859584
C          -2.48792480864891  -15.45199149568546    5.58599629244373
C          -2.70803123331006  -14.48085472557136    4.58001620859054
C          -2.40655645457012  -13.11607889568239    4.85234346169052
C          -2.64636051884724  -12.15241160907653    3.85455311140553
C          -3.15838487925330  -12.54512872764311    2.64945869330608
C          -3.45522007265738  -13.88177113334769    2.35932015618174
C          -3.22863678128726  -14.83070038631686    3.31867490054910
F          -3.39420309293501  -11.61832540162002    1.69666646402388
C          -1.87510109809464  -12.73987653354291    6.10982708966993
C          -1.67205938243562  -13.69718630049392    7.06299584780492
C          -1.14596804327919  -13.61397642580933    8.42546448106292
C          -0.43855072471468  -12.53883659027743    8.93315777400974
C           0.31628938542524  -12.61248065343816   10.11644371143342
N           0.95570287009774  -12.64591150631241   11.07074984326768
C          -0.32931828435184  -11.29124277565010    8.29794194970282
N          -0.24308695576856  -10.23446032367298    7.85234039257640
H          -4.28823277678666    2.21544510295768    2.36898743032353
H          -1.70263668459280   -0.25326249782496   -1.14237787326489
H          -1.77398978429244    3.08690377817535    3.24739428261636
H          -6.98881567338082   -0.63197230234951   -2.46788360029525
H         -11.63380462794856    1.36937264746334   -1.49405906016730
H         -12.21108985280926    1.17665459562177    0.98612725296435
H         -10.79889077070330    1.38919968312618    2.02977450634427
H         -11.44707194837177   -0.22709540557315    1.74598421511749
H          -8.83675279069021   -0.08416359652739    2.30277808585622
H          -7.60327184418672   -2.20652541068475    0.48052442833227
H          -6.99412839511153   -3.35004525633284    2.50678185050517
H          -7.44897541643166   -0.69372381794774    3.95484772856592
H          -6.73268719823098   -3.91876868571588    9.01927332733624
H          -4.01923030740653   -4.52821965310574    7.74663393494637
H          -4.77256698387149   -7.26887439838333    6.16852661160374
H          -5.36627812880001   -6.22645092308517    4.87700424049874
H          -2.80430159816977   -5.81174873706356    6.48072796761097
H          -3.48394375761151   -4.61704397760866    5.35822333613768
H          -2.97596768920553   -6.19906975065827    4.77849419058984
H          -6.73577971564896   -7.10834275026135    7.70729537112911
H          -7.61251695011360   -5.58471671610135    7.82525593161932
H          -7.35566592146347   -7.34523808181159    5.35196873853021
H          -7.99088948117992   -5.69895193839429    5.30633653939444
H          -8.80923629426303   -6.94198382624596    6.25705890587001
H          -3.63058544994571   -4.90580958197249   10.88647504334300
H          -5.39814260530239   -4.92398297409577   11.17541411670867
H          -4.44035354749432   -7.39567943681206    8.30869696890780
H          -4.24017730759857   -6.67166744752938   12.22843510531897
H          -3.46797431005218   -8.75735288250103   13.47270574979828
H          -2.51930614048613  -10.94915797996484   14.09017845850362
H          -1.51832033778560  -13.32238237405102   14.01258803943101
H          -1.14466960671057  -15.23882172694257   12.46083166840584
H          -1.19499044303331  -16.39747784378222   10.44090748921124
H          -2.71530616708181  -16.49051165575301    5.39682595636268
H          -2.42425192675688  -11.11320297101403    4.04147786498507
H          -3.85511896739755  -14.13422849247356    1.39004899389681
H          -3.45068744131637  -15.86844030940498    3.11912804934853
H          -1.65442500453266  -11.69964414671099    6.28958551232091
