102
 SCF done       -203.236610491483          0.000599078937
C          -7.86451312776003    1.00243982359688    5.18158313631151
C          -6.91833095130433    0.01326448485919    5.08159835939210
C          -6.33655786015096   -0.64166582816251    6.18663547955707
N          -5.83201532709259   -1.22218368541330    7.03941935850854
C          -6.38450372911381   -0.49592361980252    3.88028726470477
N          -5.89154168000077   -0.95994314797106    2.95192696711978
C          -8.37948696495031    1.54697670670100    6.43412652369093
C          -9.33374642533076    2.54676842572890    6.13475652192063
C         -10.00492568300534    3.24971232886871    7.10411189347782
C          -9.70562244160564    2.96439292126969    8.43989085630235
C          -8.73810433411725    1.97511451196359    8.73217285515118
C          -8.06987288717994    1.25473080356057    7.74938153437665
S          -8.50964708148531    1.79276265685491   10.44613522715285
C          -9.70163167127643    3.03019925983681   10.74041205019130
C         -10.24432288316999    3.55445115202505    9.61618796950057
Br        -10.11981485875318    3.51895670819295   12.50336509175723
C          -9.43334884116038    2.71083573544888    4.67267397673650
O         -10.14373032419821    3.51346397495275    4.09936057498752
C          -8.50817251116345    1.70714801102188    4.09284992481104
C          -8.30193003419084    1.51670977424125    2.74994304483766
C          -8.86943767035536    2.34584150617435    1.76750915368918
C          -8.59852489350824    2.28141844302323    0.43133283523795
C          -9.04404544614309    3.32108097708265   -0.41359728604477
O          -9.73246206336835    4.34582690897311    0.14189649380501
C          -9.88154126559897    5.32689996894504   -0.77361091848278
C          -9.32035109931549    4.91148979764324   -1.98284731564193
C          -8.78089459465190    3.63003867680413   -1.75238249214562
O          -8.10243983361972    2.82911257880836   -2.60622159576137
O          -9.28382105489547    5.65895736479460   -3.11413485332810
C         -10.39834108741316    6.54845750543058   -0.28688758301538
C         -10.40950055480841    7.74929937481604   -0.91747036641289
C         -10.72858774812188    8.92039978249501   -0.18853903305547
C         -10.70045887081048   10.18553392927321   -0.66343032920017
N         -10.96993376611669   11.23662985714465    0.16340340085917
C         -11.13897784958805   12.51225147175468   -0.20278115746916
S         -10.74036312718126   13.06421608191067   -1.80099284178280
C         -11.27863228752406   14.66243431249719   -1.36730956627593
N         -11.19223260380308   15.65739503877592   -2.34317557904932
O         -11.57471693830768   16.77616627324676   -2.04933080015235
O         -10.73625211495770   15.32454223236570   -3.42573563794673
C         -11.75296265740394   14.75426157628171   -0.08979589864925
C         -11.69697488318489   13.52988951388205    0.60975576404533
C         -12.21589011721525   13.27971002097539    1.90863845941485
C         -12.99544350989460   14.15650460599174    2.60800719795600
C         -13.59565953047909   13.93576610648878    3.85815453117817
C         -13.54190077318114   12.85163353384830    4.70595947033677
C         -14.17861496969507   12.81490929880516    5.97035718729734
C         -13.91764015529388   11.69905412405712    6.70613682447309
C         -13.06353109253448   10.77901104377164    6.05982262043818
S         -12.64568546994600   11.35702129967609    4.47043895812195
C         -12.49715537245735    9.64490138522538    6.62274640162306
C         -12.47259612651860    9.32056274177779    7.99263772512249
C         -11.58935967280468    8.32757644282680    8.29836027663085
C         -10.86598667165824    7.82357795793309    7.19243135960263
S         -11.47554374036743    8.53737676414636    5.72583743046778
C          -9.84512821204761    6.89069991099578    7.33897402107564
C          -8.91478546475449    6.32692968552271    6.48385985587481
C          -8.49381056555505    6.52657425687489    5.17244258028528
C          -8.62575048104688    7.56071014159033    4.20995209533102
C          -8.96687561437114    8.89190697444205    4.44075908450659
C          -9.44801308008907    9.73504563658319    3.43845933078251
N          -9.97011152863909   10.40106960482318    2.65352862050178
C          -8.82041729357795    9.48110813536885    5.70962352858795
N          -8.63733695854967    9.98704183508085    6.72489170782045
C          -8.13019385682295    7.05653608499620    2.92655293046033
C          -7.60058700570830    5.75895798401549    3.12757595458590
C          -7.77268207847172    5.39518540306960    4.54753550456810
O          -7.39622744514714    4.37502418856914    5.09202788552078
C          -6.98010852515732    5.04823629853876    2.13391668091801
C          -6.87564260047552    5.64886791880273    0.87362445857426
C          -7.37827231957013    6.95455107420853    0.68815878958429
C          -8.00396909284476    7.67597943051449    1.70056813248289
S          -7.11975594434569    7.51654448573067   -0.93512728471063
C          -6.38671357807725    5.98976862531248   -1.34383186183653
C          -6.30980013009491    5.11339458883603   -0.31634084323511
Br         -5.86415381469265    5.65748077354713   -3.11515268420269
H         -10.73304763857574    4.00089958703349    6.83995390230573
H          -7.34194664623457    0.51048893131670    8.02586502411923
H         -10.99830078557353    4.32063404484533    9.61400036091185
H          -7.63301713446402    0.73324332732827    2.41831917163238
H          -9.51187646359849    3.14380456711449    2.10877041965020
H          -7.99245118913539    1.50244024269182   -0.00669981702561
H          -7.75674625822090    3.33105463076376   -3.35634000648689
H          -8.97703877959028    5.13373450618578   -3.86391164689721
H         -10.70604186146322    6.49300065478400    0.74958364799314
H         -10.11757581198721    7.82955431720771   -1.95333418498332
H         -10.97296065244053    8.78130640586450    0.85748410007004
H         -10.50005837061710   10.41525195230634   -1.70014279525096
H         -10.95773862924370   11.01361481594321    1.16706497701044
H         -12.11718682249650   15.68148446387591    0.31221323697907
H         -12.00725548748901   12.31199507266865    2.33885963869581
H         -13.20597600038338   15.11966788352801    2.16527548892292
H         -14.19639067135959   14.75561370613746    4.23408496357438
H         -14.79766629398411   13.62799078656721    6.30647774644014
H         -14.31084068305922   11.51814869413057    7.68955812263826
H         -13.04618688692278    9.86249424605364    8.72182088728253
H         -11.39023746049391    7.98645579905708    9.29858297569207
H          -9.78673227915143    6.51142370627648    8.35441368766347
H          -8.40172486768290    5.46951944491920    6.91608355858483
H          -6.57578490538273    4.06583966737660    2.31915908812117
H          -8.36388017144654    8.67384061902259    1.50974811883748
H          -5.88782243751033    4.12755539550337   -0.39031059113065
