127
 SCF done       -218.586364900321          0.000402782649
C          -0.70271707247795   -0.27952735907238   -3.54699634348355
C          -1.27076941971373   -0.35818864379825   -4.79336001887127
C          -0.80249207209407   -1.20253904685821   -5.82333211903782
N          -0.48327895362080   -1.86200388467794   -6.70741596684643
C          -2.37705953632369    0.37180796019295   -5.27937715324032
N          -3.25371206109516    0.91345003593551   -5.78943888811164
C           0.47673475481421   -1.03032519751535   -3.13432129562168
C           0.81857045172126   -0.64235065913420   -1.81875961634768
C           1.89640426192239   -1.16133323269200   -1.14363095364893
C           2.67842481642390   -2.11570405382974   -1.80110392470939
C           2.32817282016102   -2.50289678144590   -3.11650306609758
C           1.23830876110275   -1.97627105754403   -3.79743490095108
S           3.42517698231813   -3.69607209909650   -3.74449463499444
C           4.32699820995015   -3.65671428088809   -2.25261466215878
C           3.83410594930547   -2.79684670077698   -1.33005615730550
Br          5.83448614833758   -4.75490831065301   -2.05408721956096
C          -0.14270782767926    0.36568441005154   -1.33035623989752
O          -0.10002231142792    0.88129185345105   -0.23253160976766
C          -1.11434233183211    0.56876759964100   -2.43070560943505
C          -2.23285068380532    1.35212043859638   -2.49521024968462
C          -2.85720742786281    2.30858615470793   -1.63668262136726
C          -4.00457506965829    2.94463576045552   -2.16785584522807
C          -4.64305916675837    3.92202470666584   -1.45321958720487
C          -4.19702661400792    4.25477082020592   -0.15728937999730
C          -3.08293754115281    3.62650692977244    0.38557746172025
C          -2.41479750831509    2.67438479169547   -0.35350171831599
C          -5.07909057805047    5.25651532640409    0.39119480132278
C          -6.07196976266317    5.54643417648631   -0.56018625258161
C          -5.84509817621868    4.75689028081291   -1.83163659289687
C          -5.50921140042183    5.77988183821313   -2.94326351730813
C          -5.04837082495102    5.19723803772317   -4.27274136222625
C          -7.05842413119764    3.89254177518453   -2.20461980602407
C          -7.47930945077221    2.96457550703691   -1.07064320356091
C          -7.03840598272681    6.48463610975418   -0.29212844949936
C          -7.02321848275049    7.17265225084040    0.92934027193851
C          -6.04274690699070    6.85231187404015    1.87713474008564
C          -5.07713240686777    5.90145755865251    1.62148238983702
C          -7.99123031117382    8.23201056982773    1.13409347256921
C          -7.85356771714596    9.25155591827813    1.99203706297459
C          -8.79855181060001   10.35599036455842    2.09693399670348
C          -8.41552755460655   11.70134450759876    2.22592554303840
N          -7.16703073457043   12.29285593908872    2.24848980984352
C          -5.93316862017778   11.69042225114097    1.79995054936241
C          -5.98959825838110   11.30928131164979    0.32214767636844
C          -7.33352548164711   13.65544024237432    2.39090297298663
C          -8.71195974331720   13.95761908420174    2.44871784319649
C          -9.40481381902194   12.70691451291324    2.35395076340592
C         -10.75778766939038   12.39823249287639    2.34807818009500
C         -11.12923123730990   11.07740985968023    2.20122011693243
C         -10.16586156098189   10.08671395178418    2.07256373055969
C          -9.15771461002818   15.26957432365417    2.53889721105504
C          -8.21775381592274   16.27868812279538    2.56027072499476
C          -6.86044109196854   15.98261591164045    2.52261516818830
C          -6.38020181154354   14.67847507902914    2.45668944257854
C          -4.93284679500527   14.46924118077460    2.55296158631302
C          -3.99799011576945   15.01182787665839    1.75654296026909
C          -4.21322846308622   15.72849076541489    0.52543855732660
C          -3.24428512532191   16.64800841379157    0.08230663804305
C          -3.39186861715361   17.41634267518957   -1.13536072643624
N          -2.44622936876820   18.28162276045488   -1.48620211349303
C          -1.37550067233139   18.44405194534980   -0.73182775829554
C          -1.23122297562639   17.68092268956683    0.46799324049115
N          -2.14429232568630   16.82236005999351    0.84249003434788
C          -0.07415329846793   17.84784110026901    1.27186546322813
N           0.87100027804464   18.00249417782260    1.90024157047740
C          -0.37590919232581   19.36170751205881   -1.11928986704849
N           0.46669621282835   20.09226579780361   -1.38974755213283
C          -4.53120856685708   17.28079742339077   -1.97507394716258
C          -5.48649475517888   16.32072127095451   -1.53563700213873
C          -5.31936187471689   15.54606465020549   -0.33172320980964
N          -6.30035198484608   14.65419844717746   -0.18720229200024
S          -7.34539909468751   14.80982521076062   -1.39719557553110
N          -6.59532092645135   15.99232308331728   -2.19242610003498
C          -4.77961874570550   17.96268183744016   -3.17317569240315
C          -4.03746306542266   18.87015397362331   -3.90248686832090
C          -4.50313729951975   19.39303844026886   -5.13796216789280
C          -3.64140453407619   20.24349115313602   -5.75984409443908
C          -2.44567345352011   20.43751493670596   -5.03690503356950
S          -2.45879906141838   19.51483409922810   -3.54032251073234
C          -1.35809550036103   21.21680858881084   -5.37753415377919
C          -1.18884812350844   22.00087064000986   -6.55457610355181
C          -0.00706403305227   22.65323514237417   -6.61806068132639
C           0.84683428901101   22.42997860836969   -5.48613359548754
S           0.04039442148229   21.33969232760205   -4.34597699803620
C           2.06888558199142   22.93570074573327   -5.26678883906687
H           2.12769116724240   -0.83932527028458   -0.14037317672359
H           1.01661353923551   -2.30854329403258   -4.79731204974992
H           4.26609749840358   -2.64722811381954   -0.35746055470566
H          -2.77805879265752    1.24888687086454   -3.42637405169954
H          -4.36511712462679    2.64596560439166   -3.14115400686356
H          -2.73971403790066    3.88113001584950    1.37694616218508
H          -1.54480983003406    2.19547360310246    0.06124211069762
H          -4.72798051064885    6.44368506558706   -2.56233113331111
H          -6.40169180982791    6.38710430728719   -3.11111656834050
H          -4.09560681962642    4.68614892504745   -4.16683922658062
H          -4.91725883115308    6.00437337671952   -4.99042984735366
H          -5.77818362924319    4.50276801172626   -4.67936872872354
H          -6.81510277564382    3.29365395973457   -3.08291555219430
H          -7.89116262102448    4.54923534925184   -2.46505985223579
H          -6.66759898413820    2.29069564820722   -0.80469570189602
H          -8.33602754437442    2.36720917384851   -1.37376328406047
H          -7.75306513899206    3.53577660199835   -0.18610855715642
H          -7.80197173942784    6.71795646986134   -1.02069012553106
H          -6.04921691222002    7.35184476319043    2.83399184260721
H          -4.32848025921322    5.66750414537885    2.36363433884839
H          -8.83421111870423    8.23058066184194    0.45403579761587
H          -6.99003965188241    9.29108101801967    2.63848190566271
H          -5.68602749706153   10.82282405745775    2.41535942795342
H          -5.14507082706809   12.43286022658755    1.93178509783570
H          -6.78413277906700   10.59394246321312    0.12882743440776
H          -5.04348344580746   10.86653558218045    0.02153804020351
H          -6.16545758365449   12.20348459720025   -0.27018474217598
H         -11.49598336166057   13.17794953261947    2.45635149949671
H         -12.17390194040262   10.80466893300261    2.19408998235990
H         -10.47956304299626    9.05675321311741    1.98612977780614
H         -10.21363769668065   15.48835741157351    2.58356399470795
H          -8.53058182231599   17.31065012114059    2.62019239531846
H          -6.14132077961324   16.78831746318006    2.56879737879687
H          -4.60224917473421   13.92410466075658    3.43117396026711
H          -2.95745363235174   14.93751174184146    2.04428208183265
H          -5.73282257110119   17.69858462575701   -3.61813842777684
H          -5.46611545351658   19.11365897932268   -5.52887138339675
H          -3.83937765133861   20.72266748685977   -6.70233167232601
H          -1.95201752308321   22.04820867950940   -7.31095527696523
H           0.30386089759442   23.29070554046870   -7.42660283457545
H           2.52940309443000   23.59678911357009   -5.98009266090891
H           2.62174229586926   22.69973181131598   -4.37589594483905
