97
 SCF done       -185.397198563536          0.000912256245
C          -6.51564898989117   -0.08433753687531    0.07747136403470
C          -7.29012361996154   -1.04956756768451   -0.50925096344045
C          -6.98051592352065   -2.42664407469760   -0.50613488012979
N          -6.78182267402208   -3.55632635400524   -0.55418626375910
C          -8.52857206601045   -0.83871324093668   -1.14741502001144
N          -9.56078463662465   -0.78495148503157   -1.64966462849968
C          -5.32148925868087   -0.32791440779456    0.87502276918289
C          -4.90752048864134    0.89183798159239    1.46509839844072
C          -3.82405377182152    0.97856155557501    2.30506095795538
C          -3.10640958595472   -0.19251232450012    2.56836765924680
C          -3.52090945239452   -1.40571164272851    1.96682876119137
C          -4.62048295197963   -1.49497006865747    1.12366137322628
S          -2.49472738639500   -2.73019666336059    2.42753229703487
C          -1.53717687187633   -1.65227118664873    3.40794800795028
C          -1.96151712402878   -0.36594647164093    3.39261532362136
Br         -0.07085792422187   -2.32634387344517    4.36266367511401
C          -5.80797069721122    1.98013771152425    1.03349464379330
O          -5.78296938571822    3.12935448000293    1.41213390118472
C          -6.76419648158013    1.34978569839532    0.08327611497913
C          -7.70660690993676    2.01314441486296   -0.62639517016409
C          -7.85033419139947    3.44731663865033   -0.69937486592128
C          -6.80404987276956    4.24672763191136   -1.05656855106275
S          -7.23137360301395    5.87781123455630   -1.35565987276920
C          -8.88473289404548    5.52826816137869   -0.94775223302156
C          -9.08482904155887    4.18707080992717   -0.59215007768431
C         -10.32795935790581    3.79504988858654   -0.04650199143250
C         -10.41222677671464    2.46349467497329    0.64994358343997
C          -9.73803978539195    2.54303021829112    2.02272119677557
C         -11.39510325036845    4.68284228652408   -0.03634759254850
C         -12.66452917373933    4.33248233196035    0.70241270429232
C         -13.52690543800039    3.24617719676597    0.03278125402935
C         -11.23837664438046    5.97668364004831   -0.59320998131925
C         -12.18605497548879    7.06130907770482   -0.73707844475309
C         -11.56273470772514    8.24633291817798   -1.01861303248330
S          -9.87080347168350    8.11930768294109   -1.26991044583330
C          -9.94808977036807    6.41426239923738   -0.93582846452899
C         -13.62427695724727    6.99046656400747   -0.81065569306489
C         -14.27122722145455    5.98361101974770   -1.44730715805503
C         -15.66375525361014    5.91710567791612   -1.65432958299588
C         -16.25431606050380    4.88316346846844   -2.33642246763363
C         -17.62828268340025    4.66494337906304   -2.60538879992182
C         -17.88951604450771    3.50683226752288   -3.27742565938264
C         -16.73463568327362    2.75200242699031   -3.57544895164153
S         -15.30368308685459    3.56161198277908   -2.99921010229259
C         -16.60296082212614    1.52541872254618   -4.20700731316588
C         -17.57105727173995    0.66597623038796   -4.75938320593150
C         -17.04363591736660   -0.47645952913449   -5.29079561841230
C         -15.63464016319421   -0.57479356526673   -5.18323485508173
S         -15.00441960695562    0.84105179194079   -4.37871225474494
C         -14.86262064191689   -1.61378236463566   -5.65767920081105
C         -13.47171554627242   -1.75108412920372   -5.57944517642848
S         -12.69464382978846   -3.11357375770499   -6.38468940979039
C         -11.06987390869350   -2.64531125603876   -5.93002670925768
C         -11.13872687839069   -1.47341672965056   -5.17374227153000
C         -12.46417080630816   -0.99806569350658   -4.98059556295833
O         -12.45473574510789    0.12005354852014   -4.22952618852555
C         -11.15078999422499    0.37378515298131   -3.95651366519273
N         -10.85233247330808    1.50029599562101   -3.17452598540457
O          -9.66959885604829    1.75098399881728   -2.99808434360756
O         -11.76970376382195    2.15955730124239   -2.72676061840826
C         -10.29826483169244   -0.55373728727562   -4.50502487326205
C          -9.94805553916133   -3.39838257556764   -6.31685551404612
S          -8.34559083372608   -2.94632253711608   -5.80927080368990
C          -7.64881388249806   -4.28899038907258   -6.67771386889132
C          -6.21303739928426   -4.56550504773924   -6.72509354582854
O          -5.75308507272972   -5.46069153837910   -7.38493060224651
O          -5.41399000158781   -3.76372059411938   -5.99234673737337
C          -8.62646337620184   -5.02673554448381   -7.30874789349158
C          -9.91196919527157   -4.53595421447933   -7.10767608404867
H          -3.53899957032277    1.92168422806858    2.74436755180572
H          -4.89626226044633   -2.44217880565870    0.69112605920441
H          -1.48838705251331    0.42848802476950    3.94031609706119
H          -8.37920596023728    1.46658644944378   -1.27597982325168
H          -5.79250078697296    3.93592381578811   -1.23192981335605
H          -9.91935601081566    1.69805294217878    0.05431022531408
H         -11.44543910376867    2.15472486597936    0.77096823970738
H          -8.69578732478630    2.83974501902676    1.92951801615023
H          -9.78025848776989    1.57548780236046    2.51901844349466
H         -10.23925363425712    3.27493872323745    2.65268358946527
H         -13.25270351321032    5.24040553742359    0.82915925103392
H         -12.37946399878855    4.00403911965974    1.70433459991600
H         -13.09640383192435    2.93269795221641   -0.91501188985734
H         -14.53002749771848    3.61886926137214   -0.15463887235543
H         -13.62387972384102    2.36861792848992    0.66830121626372
H         -12.04020833101122    9.19399040180376   -1.17884632659262
H         -14.17449840941439    7.85881048556260   -0.46988178876817
H         -13.67985710502291    5.17295089333460   -1.85131844910078
H         -16.29409470717528    6.70409237351578   -1.26183441803277
H         -18.38043243891783    5.36540609557769   -2.28680970361285
H         -18.87353288772119    3.17501597426507   -3.55751581476329
H         -18.61996935330979    0.90360736519832   -4.75312506835142
H         -17.62388606764731   -1.25307930015887   -5.75719566488800
H         -15.38402901829989   -2.41229119328505   -6.16844075074803
H          -9.23237306797326   -0.55948256830777   -4.41787011062823
H          -5.90687729107068   -3.09770771898131   -5.49557121875733
H          -8.38536980221662   -5.89560828817142   -7.89350210965979
H         -10.80540425987931   -4.97278189540174   -7.51633225521670
