105
 SCF done       -175.174216565700          0.000621063222
C          -8.87017452134923   -0.67762808565326    1.96844915661511
C          -8.24347189714179   -1.61828535803801    2.75664160354332
C          -8.75255944346762   -2.90782313558918    3.00160226943039
N          -9.10942021461450   -3.97354857361805    3.24116463343903
C          -7.02198409561072   -1.44522238896829    3.43405646394820
N          -6.03237459628836   -1.38924779146476    4.01875402381616
C         -10.14114271241245   -0.88239206578554    1.27535038659695
C         -10.47255467168239    0.30749242593723    0.58292318432576
C         -11.60649781120199    0.43345813768630   -0.17883998229677
C         -12.46081694124215   -0.67253170200751   -0.26337193168132
C         -12.12521072272258   -1.85480611284731    0.43371506233789
C         -10.97527924121938   -1.98095776758636    1.20570934068454
S         -13.31617723646355   -3.09828259951504    0.19296566096968
C         -14.23411127686597   -2.02522298702201   -0.82940580434453
C         -13.68074530941172   -0.79950511851902   -0.98305793110365
Br        -15.83778418507795   -2.62464395611067   -1.59779537830031
C          -9.41582671824134    1.31040170694349    0.82407452846194
O          -9.40045725652752    2.45208225585026    0.38829879126368
C          -8.42366538285947    0.65994015187034    1.67130460149233
C          -7.22819583916751    1.21310121842854    2.09754173303356
C          -6.66859370785660    2.45912492913728    1.86326398647818
S          -7.38554178514335    3.75772196294358    0.94742584062266
C          -6.01109100385498    4.78153965673626    1.16987686442300
C          -5.00801643010123    4.14895226601476    1.93669708975913
C          -5.38342773408186    2.84400901794225    2.34044946888879
C          -4.50142959951913    2.09134651426046    3.12908899939897
C          -3.28876059807024    2.60685583604751    3.50759657454683
C          -2.33521281063148    1.82624444154998    4.35081375177347
C          -2.91702911485911    3.91830690013547    3.09532789585033
O          -1.69297891381179    4.32315214697503    3.52902199816354
C          -1.23959341169495    5.60424349868755    3.17116028288496
C          -3.76461098866829    4.67675278709307    2.32271684331532
C          -5.96052945186186    6.07365675764172    0.59967939054772
C          -7.01753682516507    6.67403142163247   -0.00453567901367
C          -6.95111516446174    7.95565226006317   -0.62127043732801
C          -8.01113306319512    8.64514934853152   -1.08805489578292
C          -9.42129922706982    8.14941921072191   -0.98280628380716
C          -7.81940281935716    9.97197728189536   -1.77524296879620
N          -8.47062284110039    9.98814268606978   -3.06529882086109
C          -9.62507344298949   10.65139353708108   -3.30627779593607
C         -10.48012799798186   10.37326007433752   -4.32572787298024
C         -11.61689856083670   11.14996415692733   -4.61247341527318
C         -12.54681532672679   10.84867795429443   -5.57372711458270
C         -13.68963049564843   11.60324023803712   -5.92905413627707
C         -14.44999733618280   11.04483839592269   -6.91247977331503
C         -13.96195566137197    9.80748365640296   -7.38406756318554
S         -12.48024102861199    9.38562998145612   -6.55338852869159
C         -14.52472404736345    8.97670929276571   -8.33530047118972
C         -15.69468111748025    9.18937587749943   -9.09492475275493
C         -16.00129026835896    8.16109021556662   -9.93401435363901
C         -15.10008520346015    7.06811646843989   -9.88511978152509
S         -13.82287333780476    7.42260688652177   -8.73156828482835
C         -15.21436524378113    5.90745019721615  -10.60663691902507
C         -14.38019177081732    4.77014184323988  -10.57632271135825
C         -13.22342262421719    4.52176719989807   -9.83894233574033
C         -12.76373915021890    3.21346779450197  -10.14345554853304
C         -11.68574032691771    2.49528507838329   -9.68515794182780
C         -11.50523865931259    1.19118078220884  -10.18429294684172
C         -10.54337887985217    0.23299741866917   -9.92323758345461
C         -10.82570052532233   -0.93924567396079  -10.70299105859475
C         -11.96346626542166   -0.69675378000581  -11.44366818776520
C         -12.42990020533125    0.62656253226817  -11.15431227295167
C         -13.50185813070637    1.33687303325117  -11.61470802062156
C         -13.68689611988154    2.64685593147998  -11.11361635531348
C         -14.65255219429649    3.59487762365514  -11.36684758437452
C         -10.06562209398765   -2.16508814729231  -10.72175241083758
C          -8.96715077588585   -2.40729039480538  -10.01109758085720
H         -11.82915458367184    1.35321254006075   -0.69672161831726
H         -10.76503755367026   -2.90629936560780    1.71490750136649
H         -14.11164470425702   -0.01659695422512   -1.57987338858284
H          -6.60603089051014    0.56704178947345    2.70049012311603
H          -4.76770668732490    1.09684318301732    3.45330724079392
H          -2.74608034520465    0.85150409122891    4.59652459481882
H          -2.11968289117740    2.36931353471711    5.26967583489174
H          -1.39070518490200    1.69768595278215    3.82429409348060
H          -0.25328402077700    5.70437469141948    3.62142717519472
H          -1.89663574743408    6.38770760035456    3.56297128166370
H          -1.15302710232974    5.71144866918526    2.08487854506656
H          -3.49696650727567    5.67219445567723    2.00895309003160
H          -5.01903318355743    6.60429953661895    0.66238277271476
H          -7.96231328279944    6.15013223548415   -0.02392380734362
H          -5.96573880247547    8.39907433833409   -0.70158179727963
H          -9.54652614348310    7.20764596041482   -1.51670190552511
H         -10.12109785622947    8.87179939766287   -1.39612040527960
H          -9.68439472919133    7.97178826619735    0.05881498678420
H          -6.75050761576263   10.17193686680076   -1.91021862812978
H          -8.24478452103148   10.77979205503723   -1.17117582732628
H          -8.29143219062616    9.17996648097782   -3.64571500248993
H          -9.82169310282619   11.48364297299691   -2.64246970566029
H         -10.29160857686868    9.51452281526659   -4.95659123347238
H         -11.77815365764812   12.05010966532180   -4.03335960207875
H         -13.91245629608570   12.53867530657931   -5.44598456443665
H         -15.35127039753077   11.48322324415497   -7.30231921249452
H         -16.27565323275604   10.08983072506003   -9.00435910331385
H         -16.85641430434406    8.14669871084924  -10.58733661186914
H         -16.06648021673165    5.85344519900156  -11.27406666263071
H         -12.74304564016980    5.18953902894545   -9.15059699574480
H         -10.99536717811915    2.90839902611877   -8.96338978606662
H          -9.71625980549807    0.34218016837744   -9.24595027651701
H         -12.43406619155964   -1.37948633322319  -12.12758251024460
H         -14.19527607681177    0.92520267775780  -12.33522577440408
H         -15.48740261195369    3.49519775443119  -12.03834697016607
H         -10.45307623547015   -2.93066095825092  -11.38316007659527
H          -8.54420987910252   -1.67898000215142   -9.34062243009710
H          -8.44996969777477   -3.34899067873559  -10.07654035400596
