100
 SCF done       -179.413118243445          0.000619348793
C          -5.77986094517617   -1.46428178900443    7.52319049419616
C          -5.84055224250678   -2.66213546785719    6.84348600237941
C          -5.45441207200608   -3.89541586394186    7.39105198247270
N          -5.19471876159558   -4.94670839631861    7.77935473776026
C          -6.27092189154318   -2.83674276028848    5.51314432990502
N          -6.55033523415471   -3.06887572109495    4.42209159914506
C          -5.16442046957819   -1.26821088166751    8.83352643685113
C          -5.25837037617422    0.10296096950797    9.17720780913102
C          -4.75146450613180    0.60720410868275   10.34838546244601
C          -4.12004353581625   -0.28382013899924   11.22468778185461
C          -4.02402988634473   -1.64867921800485   10.86910513867350
C          -4.53576125232385   -2.15880347340975    9.68159959655748
S          -3.19990691553580   -2.57112486100884   12.09033972894264
C          -3.00250935670352   -1.12924190853891   13.05066961777738
C          -3.52303027023637   -0.01389213318268   12.48672337316897
Br         -2.12739943760074   -1.23350900162769   14.70669293994302
C          -5.95725017194715    0.82932849568931    8.09255808847923
O          -6.20783176956353    2.01825036754674    8.06336576225597
C          -6.28253479408300   -0.19288676436182    7.08228681305049
C          -7.03049930498885    0.02523984072134    5.94311308225985
C          -7.56029910402346    1.23810756729318    5.52134140136384
C          -8.34417503339346    1.31911300682041    4.38344492138838
C          -8.96781116350641    2.45854170165094    3.82904057418863
C          -9.69740562903156    2.20547403087298    2.70112710573172
C          -9.67975512716392    0.85142834170559    2.31321582436631
S          -8.70589957659514   -0.09192491566138    3.41914431567044
C         -10.30118079011505    0.22277062727715    1.24798518123430
C         -11.14266220917282    0.75069385344167    0.24458199075002
C         -11.59570427375060   -0.17545853882044   -0.64779730566969
C         -11.13179666837449   -1.48952327666797   -0.39803113213847
S         -10.08843207980793   -1.49380110799057    1.02756157535136
C         -11.39715795392432   -2.64345540373524   -1.08151151871290
N         -10.85811452087611   -3.82138907189517   -0.69808302587941
C         -11.02049033850615   -5.04433072705021   -1.25587708150571
S         -11.90915616595910   -5.27055987450167   -2.72878771578496
C         -11.48015367601891   -6.95258967739967   -2.70391537344872
N         -11.96594551336213   -7.74656195523162   -3.74326999596710
O         -11.67014040494434   -8.92766805531559   -3.74680205260881
O         -12.65585916913536   -7.18383776263309   -4.58028284858116
C         -10.69888191953651   -7.30131543672159   -1.63229851407657
C         -10.43701086296747   -6.22261864013118   -0.77125167140362
C          -9.64732749424074   -6.34503581523196    0.43602813301778
C          -9.79562799854795   -5.62297292357991    1.55843992696970
C          -8.99239203160750   -5.74519101900303    2.75950822534606
C          -7.78349724824393   -6.43507869847478    2.82401783023184
C          -7.07775237257125   -6.51007334882328    4.02540633157743
C          -7.66505880973791   -5.89157682275352    5.13977162336582
N          -8.79852413833527   -5.22172511263491    5.09205796080622
C          -9.43296207140524   -5.13341371375923    3.94004844847017
C          -5.81696019476853   -7.21279114758644    4.07590726906041
C          -4.93152592658075   -7.16650068120124    5.08786288840231
C          -3.69571009491505   -7.87657529158007    5.11407124008278
S          -3.22549617784480   -8.96761419009748    3.84308552664324
C          -1.73793381604395   -9.36610917804499    4.65500416652290
C          -1.61863318527835   -8.66233797549818    5.83577929781308
C          -2.72412695492024   -7.82863081839684    6.09582145387805
C          -2.81843258619986   -6.94922708082568    7.29797421133862
C          -1.72759908883500   -7.21454864853992    8.34439960749787
O          -1.56023747348657   -6.09030341232067    9.18437787202986
C          -2.59667975583399   -5.90372751125364   10.11498003590533
C          -0.37390788196200   -7.47520822013531    7.66945589680838
O           0.58758287724285   -7.68291830929688    8.68627111829558
C           1.87365616474123   -7.21096283343979    8.38563153053809
C          -0.45063870539714   -8.71309774930244    6.76390985806570
C          -0.87344238517388  -10.32076603565426    4.01321276079157
C           0.10075135675806  -11.03089515342088    4.57836083996559
H          -4.83616312799428    1.65658847516717   10.58353975191503
H          -4.43233761796378   -3.20650947322765    9.45505909810821
H          -3.48892444518907    0.95974261903841   12.94044839743404
H          -7.24898808611391   -0.83561958993456    5.32160309870622
H          -7.37044927256843    2.13461387232037    6.09257966975347
H          -8.86180283893674    3.42900663161262    4.28020384440833
H         -10.23976585799340    2.95202730558430    2.14876581338651
H         -11.39125283602642    1.79596387782773    0.21144928949870
H         -12.24628383632013    0.04253655241332   -1.47554979039007
H         -12.05465735641588   -2.65244967277260   -1.93804807264443
H         -10.21094594677761   -3.79006843598853    0.08723696383486
H         -10.35188223637357   -8.30653109217024   -1.47455533575692
H          -8.90939488639792   -7.13439381478147    0.40329631417851
H         -10.61776586627215   -4.92268176622828    1.65151758446835
H          -7.36865939867466   -6.90094148087426    1.94140506444804
H          -7.20197610203786   -5.94522362591116    6.11505669871216
H         -10.35194222656093   -4.56048357380330    3.95540641303329
H          -5.57455809545119   -7.80744033225677    3.20241694075772
H          -5.12437082367014   -6.55076949144559    5.95443226046064
H          -3.80087893113731   -7.05939433846846    7.75929489447994
H          -2.72534496359325   -5.90333383463871    6.98500844300719
H          -1.98197035224738   -8.09639035122349    8.95351827339829
H          -2.28310276319138   -5.08353576482827   10.75921527979897
H          -2.74917921901819   -6.80252472704635   10.72440253018540
H          -3.54220437963435   -5.64184298854392    9.62673748150568
H          -0.11312167622249   -6.58418760122639    7.08075981584970
H           2.48532736431956   -7.41584900881112    9.26233134690658
H           1.86637648930433   -6.13146042543329    8.19340344785816
H           2.30732371449561   -7.72309053661879    7.51732507142043
H          -0.52789243921728   -9.58880222524695    7.41660055177846
H           0.47595917400101   -8.80218951805808    6.19197528570473
H          -1.08905297217914  -10.47012036127068    2.96200544816037
H           0.33671602760929  -10.97381199492155    5.62476254065919
H           0.68602714924253  -11.71944170557403    3.99377610019688
