111
 SCF done       -198.353339044341          0.000624050733
C          -1.05901692494862    3.42568424129589    5.25554589856389
C          -1.04052742108196    2.05985459802653    5.07509727672876
C          -0.07629453011776    1.20131640833231    5.63618124312773
N           0.67627896145259    0.44330039031245    6.06071329106259
C          -1.96685629547391    1.31260688108852    4.32264516660165
N          -2.66647579796631    0.61875746768886    3.72975891501957
C          -0.08804109244747    4.17663815807138    6.05140984060848
C          -0.44379059362445    5.54645903839943    6.02325863292069
C           0.27802168461888    6.51368500238788    6.67630964763265
C           1.41146902868315    6.11079862568495    7.39223929260412
C           1.76018816832417    4.74155828150967    7.41301560880664
C           1.02697888036148    3.76172661243715    6.75291075901770
S           3.19702631294746    4.46179868279060    8.35150234800698
C           3.30607210899548    6.16732850783095    8.69724554382314
C           2.31993684850336    6.90905998288314    8.14116865175159
Br          4.71384761227041    6.80797945373494    9.76032520308946
C          -1.66019910064147    5.71489663498329    5.19708057826092
O          -2.23095637584910    6.76551568422480    4.97042076557840
C          -2.00798412300268    4.36487816276890    4.72296108756604
C          -3.06801922199672    4.07692347835209    3.88145212375295
C          -3.96146730987519    5.00735451825454    3.36994353324318
C          -4.98246732861099    4.66456994840825    2.49928091612949
C          -5.92095898715649    5.53701417297121    1.90831256243940
C          -6.80065081360274    4.92169607328906    1.06232093846920
C          -6.59763283472250    3.53292850632649    0.95012148210417
S          -5.26030728664885    3.02623169668293    1.95788543268743
C          -7.28783780026755    2.62031668536700    0.16679418685370
C          -8.34846357788238    2.86126436265520   -0.73225301342194
C          -8.78297713687649    1.74262225671745   -1.37967349980885
C          -8.09446358768320    0.55696429898707   -1.02627412726236
S          -6.87404727258557    0.92572596287930    0.17872163017582
C          -8.31593077251522   -0.68845020940434   -1.56214643030328
C          -7.65681350061857   -1.88465651296521   -1.24631100402522
O          -7.98372422512352   -2.99344840628963   -2.00157158848784
C          -7.22842742846220   -3.99366675420234   -1.53644190559527
C          -6.93305158563802   -5.34267846338432   -1.73854964801002
C          -5.96687476713510   -5.63939331487878   -0.78178870757631
O          -5.66270796898814   -4.55306165101045   -0.00772916873026
C          -6.42379882154425   -3.54816976602037   -0.47272483911428
C          -6.68839201690591   -2.19843651228822   -0.28183386239926
C          -5.28585042529995   -6.86759046960245   -0.55868382113274
S          -5.58284411378621   -8.20827892344794   -1.63231103603275
C          -4.45998882043414   -9.20247604283832   -0.75639391406938
C          -3.88204855059137   -8.51757361278732    0.27728877507997
C          -4.35799485384649   -7.19093654590713    0.41179841905548
C          -3.96027524120740   -6.28896897645009    1.53527578797639
C          -2.80403982993343   -6.85819654498149    2.35784467553515
C          -2.95337410182343   -8.36192109354507    2.55690708451491
C          -2.82202650702861   -9.06631086234753    1.20067567611490
O          -2.79129673868887  -10.46332470750249    1.30010508749661
C          -4.18871118180925  -10.58476807881896   -1.15949540954840
C          -3.02795253781007  -10.86346202183718   -1.88365534584234
C          -2.67961056968834  -12.15198208227843   -2.23575161519793
C          -3.47029249291060  -13.22662276696130   -1.84647140709188
C          -4.61722795888662  -12.96905951536204   -1.13247839123745
C          -4.99932292655533  -11.65930483563261   -0.80971526935895
N          -6.19519841299579  -11.68554622652200   -0.10455987438838
C          -6.92778929008016  -10.56517365392620    0.41970164015879
C          -6.62554835946143  -12.96643832970958    0.10281431963138
O          -7.64555139450816  -13.27694299124097    0.67022430456798
C          -5.58033225235975  -13.91083384943255   -0.48092263322409
C          -4.90370252568530  -14.65313563131222    0.69529313134198
C          -4.04042181878029  -13.65447961791895    1.47143218087451
O          -4.41997408188593  -12.63874411871540    2.01877027966867
N          -2.75108167754997  -14.08001305448734    1.41156158694670
C          -1.63003327670326  -13.36618384839107    1.96081846669336
C          -2.64082454040326  -15.26786142593468    0.69900178820055
C          -1.51010118132748  -16.00464845793685    0.41965140378822
C          -1.63950989420518  -17.17761033203133   -0.33427047899993
C          -2.90564291148476  -17.57375243261626   -0.76944973112729
C          -4.03903892358260  -16.82918181936830   -0.47953311889662
C          -3.90445517815056  -15.67179893774994    0.25537075427283
C          -0.43071757141506  -17.93809798840274   -0.63103503126522
C          -0.33668751546833  -19.02569885378902   -1.38653566416973
H          -0.01934262310504    7.54993314304491    6.63579281096279
H           1.33684038129867    2.73121979373385    6.79956300608570
H           2.23448078463603    7.97471332447884    8.25217461945433
H          -3.21461656630059    3.04623827551741    3.58177682771356
H          -3.85739815303570    6.04632080662907    3.64680376802828
H          -5.91548216043482    6.59123296461218    2.12082088846899
H          -7.57929832964852    5.43151562774304    0.52376350160314
H          -8.75403333552682    3.84502859416922   -0.88418773371402
H          -9.57635793087016    1.73163672365994   -2.10598358956309
H          -9.07027720967247   -0.76823371515857   -2.33340167720086
H          -7.33446050469609   -6.02472465466011   -2.45823124771182
H          -6.26221905068210   -1.53445252280657    0.43929179527100
H          -4.83592898832119   -6.14756128775761    2.17751749118863
H          -3.69560095641565   -5.30357487006927    1.14820589079085
H          -2.76900042297903   -6.35204381967728    3.32322061176599
H          -1.85894730037456   -6.66347716013619    1.84632113045539
H          -3.92722602967777   -8.59420154364143    2.99599556881253
H          -2.17911233123074   -8.73826191824243    3.22693086219042
H          -1.84057373481283   -8.81312498374292    0.77140746058884
H          -3.61119659364678  -10.81518924361200    1.68420057187421
H          -2.39035749976882  -10.03825977285440   -2.16300323255363
H          -1.77755311346664  -12.32682987384656   -2.80131841840001
H          -3.18724970997156  -14.23939200205327   -2.09054143543468
H          -6.29307250306973   -9.95273186004872    1.06015401416444
H          -7.74652266267221  -10.97624051235061    1.01071046167695
H          -7.33627171331049   -9.95138406449057   -0.38539410121672
H          -6.03371595128211  -14.63888853456276   -1.15630248517377
H          -5.68938049345684  -15.06646756763563    1.33533902538917
H          -1.96577982436898  -12.37117790160933    2.24427847737489
H          -0.85029991141420  -13.26980372588184    1.20507280492526
H          -1.23053187830175  -13.88765262056926    2.83346299292700
H          -0.53807791721378  -15.69038673279200    0.76778784448469
H          -3.01120526101623  -18.48079691074317   -1.34205103363023
H          -5.00890076441951  -17.15426831629257   -0.82520470348202
H           0.46876128763732  -17.54151726415513   -0.17585924191985
H          -1.18343521419290  -19.47366387716763   -1.87689508131783
H           0.60956873654451  -19.51329653155561   -1.54562582735636
