115
 SCF done       -217.603102184480          0.000717249226
C          -6.61647613001585    5.98514822197331    7.34807559092379
C          -6.47207621905330    7.34306528629746    7.45269322235846
C          -6.06017045432898    8.00619717332628    8.62819974177870
N          -5.73433091572520    8.60080856588095    9.55416898191239
C          -6.68741485560530    8.26326655103671    6.40495898771735
N          -6.83460002446459    9.07016775437759    5.60133288981535
C          -6.34295978344427    5.01519905903386    8.39937805036146
C          -6.49475571453304    3.71066739854075    7.86838133338318
C          -6.30511662986141    2.57704970891709    8.62111392182879
C          -5.94841442440907    2.73747469460305    9.96357546045508
C          -5.80088839901932    4.04497836171223   10.48713620640189
C          -5.99246866306069    5.19080669079569    9.72606632169069
S          -5.36130055315232    4.01401085068169   12.16775047761541
C          -5.37969148839788    2.27032499414169   12.14458535044213
C          -5.69870077760285    1.73650693774299   10.94136120478446
Br         -4.97844930281583    1.32012152677149   13.71044540960061
C          -6.86986844181119    3.79428736018376    6.44331702117875
O          -7.05386107472905    2.86170416058534    5.69314838020216
C          -7.01424279643733    5.24724878992944    6.15837286651740
C          -7.61638225671229    5.77095644649105    5.05995991697025
C          -7.93538961205850    5.04233815071312    3.85975903151195
C          -7.00872899367149    4.21756526297115    3.28176501020406
S          -7.48297658325117    3.55244090656857    1.78403266429331
C          -9.03149810477641    4.33131525583761    1.92289083884260
C          -9.14840363995321    5.11914585193071    3.07711218049059
C         -10.37487513181184    5.76983876669772    3.34341628472298
C         -10.48037484425910    6.63220435194373    4.57279272676264
C         -10.04020405859116    8.07048209348741    4.28305015966169
C         -11.44666603265647    5.62919669106262    2.46974535926207
C         -12.75017474763466    6.32943909097229    2.75058856487245
C         -13.66591877890671    5.47240032547758    3.63073264121541
C         -11.32660183616073    4.82394449528633    1.31160298988117
C         -12.26929413996946    4.53826062559755    0.25026059949427
C         -11.70056229535081    3.78598362252510   -0.73858814131086
S         -10.07030828746551    3.33631314043791   -0.45787650645002
C         -10.09155225590226    4.21062828931712    1.04124737594118
C         -13.67360186656218    4.88394609789493    0.18754673116746
C         -14.31643132256056    5.15812918652545   -0.96786275940261
C         -15.70562556160072    5.41893683242448   -1.13178008513968
S         -16.38616672638797    5.19123516407881   -2.70477546830935
C         -18.00590977981160    5.58460673878716   -2.19758256865417
C         -18.01100959158085    5.87941170457188   -0.81488422701258
C         -16.70560777043226    5.81904167421539   -0.22795877958480
C         -16.53392472472933    6.19306195223423    1.11866912231771
C         -17.62534898736549    6.51352330641216    1.87231390978405
F         -17.46025875702378    6.86899033104741    3.15767501286502
C         -18.92235623467550    6.46504107348898    1.32420931749491
F         -19.97732477025011    6.72766309568511    2.10872330470780
C         -19.11713502610043    6.16657536275455    0.00389023324767
C         -19.00569645685428    5.56470973234676   -3.17849208089169
C         -20.28892090864237    6.04775399740439   -3.08919774598459
C         -21.22010682457164    5.94761823286177   -4.12051854374253
C         -22.50319922037680    6.45288264406444   -4.04289545860244
C         -23.51517072499529    6.38193598325573   -5.02207580627094
C         -24.69160821921129    6.97264968249063   -4.65517424775704
C         -24.66318742780407    7.54364920474122   -3.36738329237265
S         -23.10305268862934    7.30425444788424   -2.62950716176053
C         -25.68040869672322    8.22429447756965   -2.71103937154148
C         -26.98767790816948    8.47706198285205   -3.16736743691255
C         -27.74890618745421    9.18822405956732   -2.28277302258554
C         -27.07779853022585    9.52886411433783   -1.08985659595683
S         -25.44351168021876    8.91696965419294   -1.12305894705783
C         -27.59194202421677   10.26723553112402   -0.03802762081159
C         -26.88261696365904   10.55525365565611    1.11972713201878
C         -27.27905683251513   11.33532124683476    2.18759051666561
C         -28.34659360415413   12.28171009281458    2.34167719049483
C         -28.95915281094009   13.01689903487588    1.35070628161377
C         -29.97379871325796   13.96296639887121    1.58865142978224
N         -30.81778872048883   14.73149436942393    1.71991574324388
C         -28.57502210178787   13.00786671844328   -0.00368296239675
N         -28.28098469735432   13.08203320302417   -1.11192210006357
C         -28.52648580474638   12.50860938819126    3.77689977219038
C         -27.46595314321421   11.87484770906125    4.47045420118741
C         -26.60962518417811   11.16490132229002    3.49484651740525
O         -25.59485455584676   10.54107404624445    3.72142815960600
C         -27.33347344170658   11.93825241698031    5.83496331801066
C         -28.30120597081174   12.65142092553207    6.55232363743480
C         -29.36387720341916   13.26671512858969    5.85228289354307
C         -29.49311716946699   13.21031624604894    4.46870124893522
S         -30.45302388562219   14.08394144020910    6.93265881905682
C         -29.47484479965767   13.59719924363677    8.29159808452483
C         -28.39035447008441   12.85996014201027    7.95661535574614
Br        -29.97986847799912   14.10782423756677   10.02510287645759
H          -6.42812721530194    1.59754723953327    8.18631003961996
H          -5.87356147741516    6.16416666273082   10.17181553827610
H          -5.75691917638409    0.68064290921605   10.74987501585234
H          -7.84902964259800    6.82600654711398    5.05689507679875
H          -6.02037019202899    4.01894312941361    3.64707488040143
H          -9.85445052649363    6.20068852417979    5.35719819549914
H         -11.49895016592169    6.64244916594317    4.95593436675609
H          -9.05623379455988    8.09997966514436    3.82113843361187
H         -10.00676111878281    8.65038885536217    5.20244450062573
H         -10.73483354751497    8.55277191541081    3.59940768004450
H         -13.23582560881686    6.55919336319433    1.80102491564887
H         -12.57017326413113    7.28114601007041    3.24762442761012
H         -13.86150424449713    4.50478848964187    3.17286689143622
H         -14.61267923910739    5.97868619525847    3.80694958253878
H         -13.20047783743453    5.28280314951134    4.59498486850073
H         -12.19106696485614    3.41019125315259   -1.61526650812565
H         -14.23078563928872    4.81390153513650    1.10503617577399
H         -13.74906227657783    5.14881674338645   -1.89030910503968
H         -15.55790813190082    6.25962480970410    1.56304586677844
H         -20.12497966996087    6.13940246767183   -0.37016545057103
H         -18.70221908560716    5.14752347762937   -4.13194253519616
H         -20.61415556876405    6.56383343277357   -2.19946790145950
H         -20.93978741039391    5.43962865517838   -5.03395196416624
H         -23.34896546861305    5.89770652122905   -5.96820934330468
H         -25.56719013151262    7.01316673428702   -5.27732776309499
H         -27.33699409950568    8.13322593028310   -4.12419498247147
H         -28.76737539208516    9.48573386346196   -2.45660209838767
H         -28.61222073891700   10.60585959003272   -0.14402324361209
H         -25.93184511505209   10.04868455254382    1.26064382393345
H         -26.51035952037107   11.45321087807221    6.33575770655691
H         -30.32357629526506   13.69301573904091    3.98093460293277
H         -27.68107601843828   12.47748131479774    8.66775065747052
