108
 SCF done       -208.861870641150          0.000783138998
C          -4.99074976753864    4.61434336557527    2.57944464701082
C          -4.50048926196403    3.39455623848396    2.98072466457760
C          -3.13700036537419    3.12772608988859    3.21658432791445
N          -2.04441783569000    2.84188767553440    3.42780341804700
C          -5.26560729629799    2.23615092716863    3.22361863733427
N          -5.80365697284509    1.24532535636238    3.44663764252560
C          -4.17696105136108    5.80525380733849    2.34361767741142
C          -5.02767262169142    6.86482459132670    1.94787282599858
C          -4.56063026495313    8.12259218141576    1.65666906083516
C          -3.18425767198474    8.34949365774125    1.76579825409677
C          -2.34188944182937    7.28634177380577    2.16463321801111
C          -2.81492444637000    6.01204630102417    2.45511502897125
S          -0.67768812905171    7.78387796677176    2.24216859810948
C          -1.13267820803418    9.39179180914290    1.74486209241472
C          -2.45967578063048    9.55047718391008    1.52975279731305
Br          0.18809012208037   10.71140739142710    1.55537840990594
C          -6.42644074036446    6.38483467549136    1.92179608772596
O          -7.39951635581312    7.04680653965000    1.61823440604565
C          -6.36977856369947    4.96629249994805    2.33098455922358
C          -7.46455774314827    4.14369687750270    2.46606949028072
C          -8.79545570874531    4.54217869321139    2.28335028672750
C          -9.84227979725371    3.68355908056391    2.49048394313521
C         -11.18907049903987    4.06234440426811    2.40423642286409
O         -11.55620066706215    5.33336087539765    2.08920080064078
C         -12.90656982318031    5.42315198821314    2.15725340193272
C         -13.42960519461041    4.17252188123744    2.51114932291893
C         -12.34163999380555    3.30483370522766    2.66361494214146
O         -12.36631842690122    2.00420332651568    3.00069712599289
O         -14.72621203369835    3.80090824332101    2.68728993542218
C         -13.56342592440992    6.64496530890536    1.92237989018074
C         -12.91831570656940    7.78331212096490    1.51339944300959
C         -13.54424581894881    9.02347873329729    1.35814191132052
C         -12.89200221457618   10.14601102823821    0.89877328013250
C         -13.46977868239666   11.40882676210230    0.83195672198253
C         -12.83641234152030   12.53801650554074    0.34295482869144
C         -13.32392467123122   13.85913632750929    0.36157838814696
C         -12.46852569110387   14.78008414676927   -0.17936994812277
C         -11.27819460884065   14.22226929212075   -0.67739940359831
S         -11.25583449202846   12.49669017261694   -0.41166252546903
C         -10.23657886623160   14.87762219948939   -1.32601928518176
C         -10.07000292061032   16.26176093220309   -1.50848897933889
C          -8.94037434104429   16.59345689471553   -2.20572928314887
C          -8.17751359647608   15.48749683802486   -2.62847126781520
S          -8.92149004883258   14.00230501187787   -2.06902563807829
C          -7.03329430034568   15.51111492696880   -3.40553192734526
C          -6.39962315539131   14.37724140280843   -3.90149695882380
C          -5.30307642383994   14.41357970982595   -4.73074792759125
C          -4.73775930666152   13.27687063633495   -5.31730600142552
O          -5.24087536495319   12.03243848271299   -5.10124402288873
C          -4.52773509064878   11.15228735334210   -5.85557094778116
C          -3.52990419419390   11.84545885759086   -6.56925191556612
C          -3.66485641792030   13.19492967011223   -6.22099648386026
O          -2.92943738808674   14.23558088917003   -6.65955514504246
O          -2.60984262457730   11.37949707974822   -7.42524073428206
C          -4.78231377039236    9.78401124619255   -5.91772442663763
C          -5.68740850861109    9.03985235048120   -5.20083270716588
C          -5.81720494358601    7.65651176159752   -5.40234807593505
C          -5.32040742443327    7.00094060331869   -6.50874820795111
C          -5.25642486375548    5.61933451115323   -6.63904498274850
C          -4.71177458254597    4.88468139352260   -7.67441922418393
C          -3.97989687084698    5.21235767264646   -8.86581603311427
C          -3.30018735380171    6.36561175391074   -9.21533566876564
C          -2.57423693413671    6.51707292065262  -10.41812151072176
N          -1.96679603952471    6.74330756330677  -11.36688580898367
C          -3.10936824857366    7.55859563986785   -8.50787995898536
N          -2.84227999564639    8.59588671450054   -8.07521340841735
C          -3.93385626137713    3.99719799554026   -9.69146820935246
C          -4.48039297943446    2.91700187388800   -8.95703075424063
C          -4.95452865861451    3.42350858555543   -7.65577867342416
O          -5.46407208502379    2.78624454443948   -6.75827061261274
C          -4.55494046561294    1.63830951195010   -9.44863277826252
C          -4.07520064688079    1.40804813873777  -10.74310542420655
C          -3.55203897429259    2.49385917289516  -11.48045137318918
C          -3.47269034130057    3.78777276869062  -10.97713861225305
S          -3.03193954672951    1.99954188745996  -13.06375019954173
C          -3.51346911028384    0.36092607382535  -12.71335810101464
C          -4.03922655354020    0.19094586548560  -11.47731809011605
Br         -3.27958312323166   -0.97038680430462  -14.01437849236650
H          -5.23584135805138    8.90907991221650    1.35760093427701
H          -2.13002661102429    5.23671496220401    2.75438968297883
H          -2.91141067088666   10.47482845940074    1.21882250363515
H          -7.30378393407317    3.11469015385264    2.76065593957592
H          -8.99987789265299    5.56340717109627    1.99970132353596
H          -9.66530423281985    2.65323171894600    2.76689422392751
H         -13.28592053402370    1.73470222103765    3.12677253051714
H         -15.30603891885706    4.55284786781313    2.52696730005867
H         -14.63276391478994    6.66792706731213    2.08914204774829
H         -11.85801988287045    7.71792372557003    1.31267193272144
H         -14.59047989086084    9.10494636000448    1.62643803588088
H         -11.86054356755486   10.04863268987882    0.58332858587767
H         -14.47684320982878   11.53901594939129    1.20753296255675
H         -14.28527258673246   14.09844932273004    0.78084750377710
H         -12.67811233846648   15.83248922544760   -0.24480033716645
H         -10.77065078971522   16.97809824292715   -1.11900625824074
H          -8.64657479166786   17.60154884465178   -2.43923697762658
H          -6.64028368936517   16.48333704463875   -3.67291174111934
H          -6.81602354919764   13.41044211865413   -3.64994170143445
H          -4.84300443261166   15.35409051779811   -4.99513389336721
H          -2.26347649680617   13.89533619648319   -7.27267090931753
H          -2.68929040400737   10.41535571216297   -7.57919696306341
H          -4.13210497999850    9.26311024673120   -6.60536442911297
H          -6.26384117018353    9.51490173801985   -4.42041823694275
H          -6.31943690484754    7.07500285432106   -4.64013196189329
H          -4.96046967493336    7.59115253524574   -7.33382903741831
H          -5.69916158979855    5.01304350244844   -5.85481092105446
H          -4.97245410281239    0.84044704500382   -8.85479424567250
H          -3.07202987829674    4.57404208099376  -11.59338782315424
H          -4.38762098615074   -0.75197962451566  -11.09713683007944
