84
 SCF done       -165.817503409694          0.000582065051
C          -2.10570950020158    2.01683411838700   -3.61950331742340
C          -1.33186346777247    1.29062918483951   -2.74880643691234
C          -0.04445889518265    0.80289052226012   -3.05426050629824
N           1.00702601946855    0.38058663614869   -3.23955512918692
C          -1.69536675289189    0.91747873596486   -1.43861151053311
N          -1.91492348168645    0.57042698520524   -0.36557484638527
C          -1.72512614688030    2.37929193936265   -4.98275822039980
C          -2.79054817155705    3.10089160815051   -5.57589571479288
C          -2.73806192909167    3.58301158687088   -6.86043632356790
C          -1.57358425722480    3.34432933060593   -7.59838561107684
C          -0.51341251053599    2.62466129907030   -6.99877359438537
C          -0.56898412193595    2.13497454487240   -5.69896232560056
S           0.83152882693126    2.44564240584345   -8.08398201752236
C          -0.03677221367862    3.32817859117454   -9.31158546764131
C          -1.27062063348077    3.73643470550231   -8.93091227511558
Br          0.76722211371200    3.62821521130781  -10.97924601492811
C          -3.88654794662206    3.22681119768312   -4.59902001119220
O          -4.95694197222339    3.78328694449362   -4.78173230402757
C          -3.42744126897689    2.55650406551290   -3.38216822633331
C          -4.13394879612628    2.48561083327223   -2.20499511218280
C          -5.38918581338140    3.00147528487403   -1.88179878093536
S          -6.50404798718872    3.90237786141406   -2.90184042095222
C          -7.66538817663163    4.10078643669234   -1.62620626422432
C          -7.21817898656918    3.49002834934848   -0.45104953939273
C          -5.95520550262212    2.87899593930182   -0.61066699736636
S          -5.45720014818896    2.14625256799160    0.86921681612104
C          -6.96968378966954    2.71621265999105    1.56496012318416
N          -7.75056196922160    3.37124909122667    0.79684256661074
C          -8.86198178841334    4.82793090298892   -1.83502030823058
C          -9.75452794501894    5.07223176894779   -0.84485363448970
C         -10.93898363435330    5.84410762578544   -1.02970965579023
C         -11.80311959907280    6.21436212351610   -0.06535160899335
C         -11.67386609508431    5.85762159149030    1.37855249873816
C         -12.98343272827489    7.09600133807337   -0.42870712548082
N         -14.12229794640536    6.96332850185659    0.44147240447456
C         -14.22497683300580    7.66722031161016    1.59782893621770
C         -15.02326596428159    7.33767365227896    2.63645507180879
C         -15.12711281390808    8.09881055835501    3.83444794241347
S         -16.12184344243818    7.48341342359873    5.14407267133225
C         -15.68311849983923    8.80718561505346    6.13931559889707
C         -14.81391362183938    9.68783031703809    5.47782554469717
C         -14.50466225578848    9.28721786805158    4.18032632631046
C         -14.45091435146893   10.79085134722605    6.37143677268774
S         -13.46500790135729   12.04441774736989    6.02819742548386
C         -15.15294532779314   10.50025387826373    7.60436419973321
C         -15.88886034144113    9.31214541740899    7.44801959858196
O         -16.53989025054626    8.99616910934261    8.55785849751320
C         -16.23684868922010    9.97751382578927    9.47750913382063
C         -15.38343049557076   10.92267770000390    8.91817628540339
C         -16.80099276770455    9.86089164731625   10.77340212247587
C         -16.55927881195674   10.70825831266137   11.79916358261940
C         -17.11782668295711   10.57450359547341   13.09718105375665
S         -18.24228361877589    9.31102504356233   13.55932838494552
C         -18.38614533271481    9.85345801190450   15.18252952039812
C         -17.60714942339664   10.96457947026592   15.38822125455880
C         -16.90061297440467   11.35978856527325   14.20734319457680
O         -16.14110284131662   12.45336405659801   14.44489304340275
C         -16.35501290332790   12.75547692600336   15.75405437498357
N         -15.67322131274793   13.87471343979277   16.29002976431049
O         -15.88202881031908   14.12336818241906   17.46313932873581
O         -14.93842267701658   14.49952875707340   15.55688260602348
C         -17.22324711746644   11.90598242208767   16.38318310763838
H          -3.56735706971982    4.12849088743728   -7.28268063707724
H           0.26686158122363    1.59338152377340   -5.28920933103485
H          -1.94030912539748    4.29157715097325   -9.56201161182924
H          -3.66444794303195    1.96948995264550   -1.37537926075236
H          -7.19158030569681    2.50474757815717    2.59253260954690
H          -9.02477037487042    5.20898591300776   -2.83434246066922
H          -9.53891972216888    4.66748121975132    0.13220427410034
H         -11.12953611426833    6.17761118872815   -2.04311535777328
H         -10.69513870313911    5.45119058362943    1.60846698225700
H         -12.42440464026170    5.11433845229967    1.65303789041810
H         -11.84353549096227    6.73495459627532    2.00167458370235
H         -13.29873061068096    6.88575354822282   -1.45535534827000
H         -12.65819704393933    8.14278023119092   -0.39143167289575
H         -14.59312863019761    6.07005529041652    0.41778788919340
H         -13.63363162917834    8.57151649109218    1.62502117291401
H         -15.60913873874910    6.43010068658393    2.59095051969756
H         -13.85518833150876    9.83626539140507    3.52472439123013
H         -14.99112439107188   11.79039746532355    9.40623427215404
H         -17.45939804476922    9.01499785488351   10.92144838484199
H         -15.89736924607075   11.55290202467407   11.67377065391477
H         -19.02036056681582    9.33112276992094   15.86784399386038
H         -17.52845157987928   11.96258750755682   17.40733761110953
