90
 SCF done       -169.319034847680          0.000758799900
C          -9.05303025966017    2.04286218741626   -9.14533957936619
C          -8.98377664930564    2.75589638663074  -10.31249995110618
C          -8.92220887495808    2.17004084990285  -11.59454185897329
N          -8.87887693510313    1.74964427350275  -12.66141570107654
C          -8.91587286912989    4.16236349132424  -10.39185316101848
N          -8.81866754016651    5.29902519657426  -10.52684483247073
C          -8.98994253511833    0.59480230267435   -9.01939183112647
C          -8.90338703106326    0.25771090554082   -7.64540123563540
C          -8.81567694611931   -1.04138145173045   -7.20642130160268
C          -8.81264875729431   -2.05668070259099   -8.16794732787434
C          -8.90407227827766   -1.71074939092352   -9.53837930118475
C          -8.99300078578352   -0.39800283592005   -9.98263195311621
S          -8.88869139640170   -3.11923716298853  -10.55494762099202
C          -8.75856025060792   -4.13936472367542   -9.14668228170862
C          -8.72940339745930   -3.46236824261742   -7.97394320556753
Br         -8.67603902416709   -6.00035984444322   -9.35718818873003
C          -8.92825646069701    1.48587454252654   -6.82849395298522
O          -8.90404317038106    1.55346524567733   -5.62066046953159
C          -9.08136571619172    2.60221922380021   -7.80368783991828
C          -9.36468607138679    3.88391206431310   -7.46915211526877
C          -9.23215138465016    4.45711007608232   -6.15838303352827
C          -8.11893088385465    4.22584592908960   -5.33003785759857
N          -7.96046595925972    4.83510902516593   -4.18421368577554
C          -8.88194342058918    5.72629291653264   -3.79998624737205
N          -9.97607227932721    6.00829400959637   -4.50890882124055
C         -10.15011565251203    5.38686116420943   -5.65047760329182
C          -8.57356489872765    6.42316399972851   -2.57070989940059
C          -9.28389331459334    7.36785026707332   -1.93680908352414
C         -10.60992736401693    7.89649898286821   -2.35638877355167
C          -8.64930624391776    8.08145138702048   -0.76329982526560
N          -8.06431468119275    9.30820353723922   -1.26604949200373
C          -8.66859143174248   10.50739051773410   -1.19334718066510
C          -8.42636471850401   11.53182760331560   -2.05968024582999
C          -8.96834303122833   12.81803300476116   -1.92865256269338
C          -8.87155248205612   13.78839348377637   -2.89491337369827
C          -9.35807365278940   15.11443622057744   -2.84754118555028
C          -9.17436005698274   15.82059757515273   -3.99910214084779
C          -8.55432331768492   15.07803762594399   -5.02854717741504
S          -8.14787290995979   13.48014645778419   -4.47142499388085
C          -8.34494162400776   15.45383852009286   -6.34497978404276
C          -8.64805289985242   16.67223526325559   -6.98046542106950
C          -8.44851939296424   16.64722303499502   -8.33064616242052
C          -8.01837760168913   15.39868010264075   -8.83543920059706
S          -7.75791027635127   14.29231903088794   -7.51793560550903
C          -7.78829488077436   15.12018773176886  -10.17632117658952
C          -7.48384773497821   13.92393184292329  -10.80836156979526
C          -7.55878449868553   12.59151553660698  -10.42049077919905
C          -8.27502554969280   11.88722035416593   -9.40944445388402
C          -9.40759736353966   12.31446121567093   -8.73789845569888
C         -10.01434500534042   11.61376743866903   -7.68331688666031
N         -10.52193744425403   11.10915661308895   -6.78274370170310
C         -10.13024611613787   13.46069697599523   -9.11073358816913
N         -10.76561940971487   14.37078401461595   -9.40894894807543
C          -7.73330102485237   10.52897727509508   -9.33379012924416
C          -6.83467147250678   10.34496926765738  -10.41128126909007
C          -6.72621985007121   11.61781698019907  -11.16130367067707
O          -6.06641466407896   11.82520977763474  -12.15831851833429
C          -6.20664236974138    9.15011218682830  -10.65465406656243
C          -6.46216804761528    8.08907420358866   -9.77731390509515
C          -7.34146788534098    8.29108017048609   -8.69265899901810
C          -7.99326666838234    9.49649268403021   -8.45576608379681
S          -7.49659896847014    6.85456121011196   -7.72228369530270
C          -6.40014683541224    6.01551590001130   -8.78752131272945
C          -5.93599735592613    6.76698946078038   -9.80909936420555
Br         -5.96311041010180    4.22323301042542   -8.44526807816061
H          -8.74876221163177   -1.26609752499699   -6.15351144874789
H          -9.06569870109334   -0.18428090216123  -11.03599158991068
H          -8.65246162259057   -3.93328470925494   -7.01101517575736
H          -9.71530800695891    4.56578142548175   -8.23506608323646
H          -7.31832983754458    3.56919885474649   -5.64100911326386
H         -11.06372428812603    5.62016409681380   -6.18333090932879
H          -7.61879674429414    6.11617613181307   -2.16317801832730
H         -10.99154817458677    7.34159039306273   -3.20608205727412
H         -10.52282367795197    8.94811192840744   -2.63408474014525
H         -11.31301473290877    7.83318373780094   -1.52605780090616
H          -7.86016926490365    7.47231412593813   -0.31335058561856
H          -9.38758548922015    8.33385478599564   -0.00025265806570
H          -7.43980910392521    9.17453310253886   -2.05192779124213
H          -9.35507221954463   10.63556801039188   -0.36660819093809
H          -7.79510616652781   11.34664323858836   -2.91926092992207
H          -9.51224340605428   13.06233723022571   -1.02564832300136
H          -9.83444138950654   15.50508702769296   -1.96536183750295
H          -9.48976800923820   16.83769232151064   -4.14550960803022
H          -9.01654482062920   17.52400961750689   -6.43791936172791
H          -8.64557280543528   17.47468959631851   -8.98825907850203
H          -7.80257083751506   15.99564889778895  -10.81482479382016
H          -7.04867507221659   14.03238531235788  -11.79893402180847
H          -5.54028553936627    9.03213381734681  -11.49463591538857
H          -8.66231056308907    9.60019792964209   -7.61754144365100
H          -5.25657733101750    6.40778565308995  -10.56047680187315
