85
 SCF done       -170.874656290220          0.000732944298
C          -4.74120771446805   -0.81678162602242   -0.31763617545676
C          -4.86886729872192   -1.39656700815666    0.91737235817707
C          -3.87602098815028   -2.18996647028792    1.52484202535490
N          -3.08179720551095   -2.80482708746580    2.08181235921911
C          -5.98641888156223   -1.21432096300331    1.75763760742043
N          -6.88383764367018   -1.09815170799314    2.46387485500970
C          -3.59917297016074   -0.95554432050516   -1.21357366164557
C          -3.75379825063308   -0.05924100572675   -2.30402440204236
C          -2.80798256729507    0.07261714158905   -3.29178078637245
C          -1.66087458930801   -0.72393301906043   -3.20578125333606
C          -1.53063757477616   -1.63476095679616   -2.13083199580255
C          -2.48676610158754   -1.76814135871763   -1.13116967348613
S          -0.03937459231195   -2.52053336214297   -2.21967325596777
C           0.38732848308411   -1.66568307922519   -3.68126323204454
C          -0.54171768313877   -0.76449763860260   -4.08181586232482
Br          2.01300266563625   -2.04773169769980   -4.53180455715539
C          -5.03081057299559    0.64399756731936   -2.15763370927593
O          -5.51255985963536    1.49364029309152   -2.90056423443125
C          -5.65809756864939    0.11100868766908   -0.93946875725631
C          -6.91759990737165    0.49128934612809   -0.55411748857678
N          -7.58275669963963    1.40685467198496   -1.27508998939954
C          -8.84240664550813    1.86010003367370   -1.08789819139745
S          -9.88814814477344    1.20397170697854    0.12891797488394
C         -11.12985072902364    2.30836745864552   -0.37544978960400
N         -12.35951742243410    2.26308017837738    0.29910487763802
O         -13.22392147267460    3.04119090005447   -0.05583651296205
O         -12.46385336969855    1.44270173296906    1.19217911061911
C         -10.75894277228020    3.12662503660274   -1.40547471752653
C          -9.43764488895974    2.89118591632311   -1.84013403223129
C          -8.74347112382146    3.60492254022742   -2.86297550661370
C          -9.19361521192566    4.68869173432752   -3.54982905404363
C          -8.33388453795729    5.35917782520825   -4.44595667312905
C          -8.61907330172578    6.51281147889380   -5.12210679399983
C          -7.70020520478848    7.26731027715280   -5.87414144224748
C          -6.32693047008566    7.15048436261188   -5.91176856990649
C          -5.44770380935216    7.98821410640439   -6.64396939389577
C          -4.12131668922506    7.72969658844030   -6.45457008091022
C          -3.87637752988526    6.66504261036947   -5.56240075925925
S          -5.37910176683318    6.00275645174916   -4.98432731910356
C          -2.67655648193928    6.12425538666036   -5.12662023620975
C          -1.35596998810014    6.50312374643193   -5.43288421803612
C          -0.40909585774385    5.74688449331062   -4.79946495116774
C          -0.93911090680919    4.73916404169031   -3.96541627394275
S          -2.68206404103732    4.76912873183676   -4.01911716138900
C          -0.23829261944728    3.81162275920053   -3.21222906747631
C          -0.87525635402054    2.87749016119963   -2.40802144713658
C          -0.34869063723439    1.83295063968830   -1.67359963853244
C           0.93971229448800    1.20101885883133   -1.66676002776427
C           1.89365962545868    1.23828319355026   -2.66211313614156
C           3.17606243487401    0.66972542906651   -2.54566614248954
N           4.24975697979362    0.26524789305814   -2.48878487521118
C           1.65834682557671    1.73284247918117   -3.95719984962359
N           1.48267476957602    2.03299927907961   -5.05283012684274
C           0.98828924506793    0.30970116419962   -0.50747142663783
C          -0.28892221226208    0.29953079255344    0.10795047609080
C          -1.17442620055821    1.23170927521916   -0.61085650855433
O          -2.34843392831803    1.45980692248293   -0.37708792894562
C          -0.59461245192222   -0.52098811419631    1.16489339073850
C           0.39932797984169   -1.38897607614030    1.62712046432613
C           1.67620469045238   -1.36067093032461    1.01877801237863
C           1.99106338512440   -0.51851896425061   -0.04215414470027
S           2.75014288793075   -2.51634252613764    1.74349877584119
C           1.47842507862868   -3.02602718480487    2.82540182955569
C           0.31157212436740   -2.35976821825259    2.66119480198222
Br          1.81938092274674   -4.38788748244342    4.06682031981391
H          -2.93868997608959    0.77416955009734   -4.10079255647756
H          -2.33974714360101   -2.47695369224890   -0.33343114743381
H          -0.43646939609746   -0.14610888910331   -4.95489210196452
H          -7.41801975555434    0.07570240549835    0.31125999379462
H          -7.02980303852323    1.76391610399350   -2.07852625482141
H         -11.42430158137924    3.86005237235522   -1.82183710647961
H          -7.73771065145200    3.27365010571259   -3.08653953656136
H         -10.18350217479313    5.08777920533440   -3.38319439434470
H          -7.36287972411951    4.90430686783576   -4.57239733362813
H          -9.62893143641320    6.90020776026130   -5.07516889793772
H          -8.10680420680260    8.08540456034606   -6.45580541196866
H          -5.82429878425198    8.76579473472372   -7.28523308386119
H          -3.32364597726049    8.27651657350694   -6.92408535275977
H          -1.13519242290616    7.31740300501564   -6.09956925654721
H           0.65197932053903    5.88037110755683   -4.91131177958651
H           0.83905149407839    3.85816280589929   -3.25748243342400
H          -1.94607426705970    3.00763002042219   -2.26753732146958
H          -1.57444701451647   -0.51248207428692    1.61456596552125
H           2.97823044041003   -0.53673572948814   -0.47332016688075
H          -0.58369865647930   -2.55196988924099    3.22392397017347
