85
 SCF done       -167.459724220540          0.000445995755
C          -4.74658870122688    0.79558718973976    1.91122944450525
C          -4.99372488297903   -0.24106321480342    2.77449637867393
C          -3.99071540931071   -1.01406863023879    3.39333215367838
N          -3.21517160339087   -1.67319593357492    3.92419124429966
C          -6.28557484778878   -0.65921049502388    3.15219329286487
N          -7.32094873900526   -1.02686938527912    3.48507496553324
C          -3.42887047496019    1.26723019100529    1.49420051129468
C          -3.59046993676939    2.35799324940760    0.59981771347249
C          -2.52545369557892    3.01707332550979    0.03441518518085
C          -1.23814759870914    2.58246341798705    0.36665315340685
C          -1.08597019339222    1.49492638458180    1.25969722214158
C          -2.16361116550709    0.82701855001978    1.83069955394942
S           0.58757853311145    1.12388077519709    1.53503355403528
C           1.05562636525914    2.41660716152025    0.46243267933691
C           0.01240233904920    3.09243397013687   -0.07618935263694
Br          2.87460956920694    2.75374791821926    0.15552666791779
C          -5.02298370200957    2.61402331029229    0.42175416118979
O          -5.54711332526339    3.48036030160756   -0.27609727596124
C          -5.72364282080454    1.62714304142764    1.24690044666253
C          -7.09626196778038    1.58589369101884    1.30571805401593
N          -7.81785616268585    2.46536180241076    0.60122055361877
C          -9.16767610285322    2.56437768369965    0.53267020660740
S         -10.20942339168769    1.47232412336132    1.39059310546272
C         -11.57994646141917    2.29871083832254    0.72368278299045
N         -12.85890538019799    1.84658456408521    1.07596690896543
O         -13.81308364768909    2.43312937931337    0.59916175837923
O         -12.91647497690846    0.89783819033351    1.83719173432094
C         -11.25045816925969    3.34033420790353   -0.10062300806748
C          -9.85915193197161    3.51838907826875   -0.22817099522621
C          -9.20923068738434    4.53148587579493   -1.01574067232397
C          -9.83427726443154    5.38046579227884   -1.85447549868174
C          -9.11885266576544    6.36317837271552   -2.61243736143030
C          -9.62436589377906    7.21241405530476   -3.52260343333087
C         -11.04880837178612    7.28264892975822   -3.96320324574101
C          -8.68828698952009    8.12323855585354   -4.28433546162371
N          -8.27581380969692    7.47281671535357   -5.51107436865650
C          -8.95668180984940    7.57983210815889   -6.67160703050335
C          -8.86856542008876    6.67698949806982   -7.68587303339318
C          -9.50471588242353    6.82445673637152   -8.92944070820663
C          -9.45690122561685    5.88813590432702   -9.92952135431502
C         -10.06138332267407    5.95320853852120  -11.20732951260428
C          -9.84518172583181    4.85868626235082  -11.98805866602191
C          -9.06022132330415    3.85798939201161  -11.36973193465961
S          -8.59359446484915    4.35898504568806   -9.76405798118899
C          -8.68182238359322    2.63277615715427  -11.88270363567252
C          -8.96942080485878    2.08916195201274  -13.15298446499233
C          -8.45671983402389    0.84360559716332  -13.34909345866508
C          -7.73527849287057    0.32761317048294  -12.24131760829220
S          -7.72670563167045    1.49802129521366  -10.93917279469455
C          -7.13383490686498   -0.90200307864002  -12.17813963988601
C          -6.42580716091211   -1.44709697270325  -11.09343073763820
S          -6.15244394917808   -0.65413414448948   -9.56216139077559
C          -5.27390418539091   -1.99000454287422   -8.92505901086714
C          -5.19115177252315   -2.99922122572626   -9.83981348094662
C          -5.83282579876701   -2.70374996810012  -11.05712193380558
O          -5.85755227629100   -3.59035031145760  -12.09816413846277
C          -5.24980984406585   -4.78400005112903  -11.95372527745676
O          -5.25632399942318   -5.57435530353502  -12.85565247269107
C          -4.55343804392815   -5.11290123018520  -10.62280153759018
O          -4.00970122452475   -6.16608460431481  -10.45753138111868
O          -4.55786785866382   -4.19476480751741   -9.63180903147778
H          -2.67873688392155    3.84256458904253   -0.64290167389271
H          -1.99533741152970    0.00390794749715    2.50469715940642
H           0.11984991509816    3.91669328073735   -0.75734783553065
H          -7.63439846302379    0.86309253619999    1.90475756668355
H          -7.23753238869278    3.12419497106017    0.04980938069295
H         -12.00008992236450    3.94484153055066   -0.57624408748076
H          -8.13337322364688    4.60483040457394   -0.92493017403872
H         -10.90423969845782    5.32480615005603   -1.97742503835656
H          -8.05447297042107    6.40854523160483   -2.41167173371040
H         -11.66185927462932    6.50855268213106   -3.51514371672498
H         -11.10343565793744    7.17970874543779   -5.04812774319540
H         -11.47069856457690    8.25380679729962   -3.70179876730735
H          -7.79415417139567    8.34211269066284   -3.69423138417276
H          -9.18206842931222    9.06236753400657   -4.54223309833062
H          -7.76541057741543    6.60920477829669   -5.37962707291914
H          -9.55321339088679    8.47605665176672   -6.78073794826612
H          -8.27716983076590    5.78259236779542   -7.53788073363902
H         -10.07537897511771    7.72528667569713   -9.11350372918488
H         -10.63771618438453    6.81029265378590  -11.50919443442702
H         -10.22952948348259    4.74033975980564  -12.98502386627431
H          -9.54330796678996    2.62825289140116  -13.88526944398363
H          -8.57238536772250    0.27081772176439  -14.25184348719469
H          -7.20444872902029   -1.54154116489029  -13.04759641895734
H          -4.87431484604518   -1.96434583016915   -7.93386226112404
