121
 SCF done       -232.388600109949          0.000855198789
C         -16.69451985946449    8.33564095028176    3.70640607599635
C         -18.01411292484556    8.00786874887699    3.54991934264039
C         -18.99635278866593    8.16793745346279    4.55011489811000
N         -19.83709353845034    8.28772133134647    5.32210218007478
C         -18.55956618937633    7.44138467421203    2.37810876254739
N         -19.05670737759725    6.95628384599306    1.46409668976026
C         -16.06668992124581    8.81755468083598    4.92787194199732
C         -14.66650202741058    8.90725686581609    4.72406940139960
C         -13.80201547361374    9.31529546899964    5.71063435547480
C         -14.34228424568611    9.65079281728363    6.95627315211048
C         -15.74319828352942    9.56861859123470    7.14692128009874
C         -16.61798230783871    9.15615968636387    6.15083838681524
S         -16.19867809778406   10.04107775085311    8.75543316934463
C         -14.52529480812225   10.33450451429038    9.14675762566245
C         -13.66758330507348   10.09298237574702    8.12642737595504
Br        -14.06887446253409   10.93699511567829   10.86246447437555
C         -14.34237315205702    8.52589009013958    3.33524838438485
O         -13.26582743801392    8.60792146707466    2.79000263541201
C         -15.64853032400858    8.17229778848147    2.70926674950982
C         -15.78513895793796    7.91764006264222    1.38751121261381
C         -14.65293764392374    7.67745631828755    0.51129253453965
C         -14.44523637193905    8.53424094443149   -0.57876309449944
C         -13.33566714193246    8.42634656400397   -1.38787753720281
C         -12.39518418592371    7.42239456898891   -1.16914465606129
C         -12.61336094308612    6.53128098226371   -0.14612195479696
C         -13.73275575567918    6.64231829477171    0.69294807050101
N         -13.78335333158855    5.55561302694989    1.54427200620286
C         -14.80301875956244    5.23887559090137    2.50152868622852
C         -12.72592604268984    4.70044331996400    1.33386096471597
O         -12.57425888426732    3.64010009782669    1.88372684703435
C         -11.82317877519676    5.33272205645082    0.27915262118440
C         -10.47763978907344    5.70494066872213    0.93693147202943
C         -10.71980009186021    6.66058218882129    2.11039644070642
O         -11.37592243815345    6.44437653719374    3.10006018030309
N         -10.05442063368070    7.82375474732034    1.84061156242931
C         -10.11297009247464    8.97888181461242    2.69234096403484
C          -9.40052842900596    7.76605076050878    0.62233486709517
C          -8.65937665236218    8.74279803883543   -0.00805499571030
C          -8.13906822914002    8.46892675740883   -1.28064804842787
C          -8.32496286933004    7.20575839309005   -1.84970380649826
C          -9.04124714758242    6.21837178867094   -1.19049969441739
C          -9.59353837698672    6.50617520933172    0.03857116491346
C          -7.45638459397745    9.53036946156305   -1.99149017565593
C          -7.42613886428179    9.64943087523188   -3.33223534219281
C          -6.86073574523202   10.75786177295837   -4.02528620423237
O          -6.09803243708610   11.69244383583964   -3.39720937138820
C          -7.02629716427589   11.14197238954011   -5.34120393864637
C          -7.64244639069468   10.77158279690205   -6.61837602353203
O          -8.30260307754187    9.81586025864443   -6.93302140899869
N          -7.29121322327760   11.82142385633601   -7.46485671918921
C          -6.52407010717319   12.83080873606852   -6.88202049806235
O          -6.13365438541730   13.81916405439272   -7.44735964410862
C          -6.35581025016516   12.37759404998936   -5.50045346210152
C          -5.78228220594698   12.68690890643227   -4.27841842166571
C          -4.99836635280852   13.79911423305605   -3.90416690057189
C          -4.27681367080338   13.89277535810526   -2.74949262523531
C          -3.53693312312817   15.03521201641924   -2.41096085259243
C          -2.64900267959556   15.12632404403756   -1.36717399294862
C          -1.93072323761491   16.28299087285586   -0.97560524014399
C          -1.06484946209023   16.08056351372685    0.05459590981293
C          -1.03112571436465   14.74465868087764    0.51805600718767
S          -2.18295977021990   13.76726700804879   -0.35638861126242
C          -0.17761001428795   14.21852753390775    1.47294056385219
C           0.77035010812784   14.92131397073075    2.24842798329758
C           1.52612505694407   14.11944279252456    3.05002456623589
C           1.22134628698438   12.74305305227701    2.94113492758646
S          -0.08937463160572   12.50404390358628    1.81144778701786
C           1.90147509001195   11.71431927848546    3.55996644127259
C           1.60513520385552   10.36361812664796    3.40039353608754
C           2.35207687496524    9.29581662725663    3.84653765595921
C           3.70827715476576    9.22054595617973    4.31738791951610
C           4.74536018798776   10.06579503002509    3.99345087009704
C           6.06335467394950    9.90735584547174    4.46343427081234
N           7.14782960521429    9.84081543667340    4.83572897937253
C           4.65211779465490   11.11963337665113    3.06335061566368
N           4.64941696789434   11.96093267511373    2.28099423183675
C           3.85907258705156    7.94272952292121    5.01254553323485
C           2.69208982981232    7.16863585332375    4.79255399795326
C           1.72641283924367    7.96379263341515    4.00275818401126
O           0.63609675827350    7.61781188477255    3.60179072168996
C           2.55158005623334    5.89314091766343    5.28048991305991
C           3.60645123251210    5.36044692586355    6.03092065053664
C           4.75871443088394    6.14810230703465    6.25859521005454
C           4.90562346712081    7.43650671454534    5.75704244428718
S           5.93357551222096    5.30124984768532    7.21859654124771
C           4.87747096746797    3.91592924735394    7.29454908519745
C           3.70423909997474    4.07838859434878    6.63870710827929
Br          5.42340487730065    2.38749132503198    8.23530132740965
H         -12.73999035587469    9.36684341546143    5.53015685659729
H         -17.67740308739434    9.11327825735300    6.34121646551057
H         -12.60280442136632   10.22074817393362    8.19523631416702
H         -16.76037405481266    7.96265158452707    0.91864696237450
H         -15.16045856962709    9.32533257472041   -0.74923116263195
H         -13.19392223126370    9.12360346726723   -2.19879209674955
H         -11.52759605912021    7.33645991513027   -1.80456014381413
H         -15.79494330795541    5.36339825636654    2.06193004514491
H         -14.71502928656506    5.86894444379485    3.39067205520652
H         -14.65203465230125    4.19855919290805    2.79264090840870
H         -11.63593463798936    4.63262383863133   -0.53902504582250
H         -10.01155358327033    4.78488444098714    1.30276778089540
H         -10.80375762631714    8.74211049923360    3.49925770921468
H         -10.49578256209085    9.83735714481553    2.13857266539739
H          -9.12646726985111    9.21138127925230    3.09956422306908
H          -8.51107114465690    9.71267332594160    0.44052424306830
H          -7.88865848080848    6.99059904472407   -2.81200923359848
H          -9.17249826577815    5.24640861760456   -1.64142844410289
H          -7.01436847297725   10.31253541856022   -1.38806944823704
H          -7.91679668156587    8.93295548386990   -3.97446995959015
H          -7.57527495165440   11.85176363204905   -8.43369415383557
H          -4.96528532847124   14.59558632830318   -4.63414903917973
H          -4.25319955828470   13.04981641261473   -2.07101500361855
H          -3.66190587886542   15.91686254528690   -3.02633848663056
H          -2.07818704649514   17.22612778815679   -1.47109919767068
H          -0.43614236458240   16.84435803760089    0.47443845478328
H           0.87161667042128   15.99012305114995    2.19730304639489
H           2.30915088866931   14.46841995191672    3.69883391008161
H           2.71766000425298   12.00384814370883    4.20687280493433
H           0.65759757401497   10.10552415355925    2.93718066402758
H           1.65713532668577    5.32119221369850    5.08967331502099
H           5.80147205473807    7.99971453510926    5.95946600654381
H           2.93818586933439    3.32662578000464    6.58414074067017
