95
 SCF done       -204.049545647111          0.000615166445
C          -5.64893836824440    1.14293661128464   -1.29757051852643
C          -5.47955276895639   -0.12411484374942   -0.80144249000121
C          -4.29147265620592   -0.86781222882620   -0.93274888482971
N          -3.35126631262665   -1.51993866199310   -1.03349434510419
C          -6.48602671181929   -0.84121579246249   -0.12123991813808
N          -7.28169521751831   -1.44170696202395    0.44682347759893
C          -4.62908805065350    1.92497662714584   -1.99470633457746
C          -5.21053534053225    3.13662964990688   -2.44668499235431
C          -4.51202247190422    4.07566048045161   -3.16508828681803
C          -3.17210990795791    3.80466410098942   -3.45670590420275
C          -2.58712825675211    2.61104925071985   -2.97149865913230
C          -3.29453106333263    1.66451208329125   -2.23871596753141
S          -0.92439203947538    2.47153178530032   -3.45305548359306
C          -1.04884277945785    3.97694407763260   -4.32431420867390
C          -2.26273565843795    4.57069377230332   -4.23435000414443
Br          0.41466810936646    4.60082179353687   -5.31112677648324
C          -6.61219152815434    3.17668532917167   -2.02160075037101
O          -7.42421069288117    4.07322257944764   -2.23788718479651
C          -6.85925940268884    1.93346458162494   -1.28567579060649
C          -8.08940949821311    1.65932857930025   -0.72979720942526
N          -9.09111184641772    2.52699669436928   -0.89610924151135
C         -10.36971789459993    2.46853635722540   -0.43820087254427
S         -10.85989822726647    1.39635774588164    0.83231540795021
C         -12.42743666740025    2.13728310032215    0.82043156029601
N         -13.38284462735805    1.64545060912993    1.72788397114924
O         -14.48077002274801    2.16204279879431    1.72433891806125
O         -13.02332559571236    0.73576063611737    2.45111335838351
C         -12.55927601015835    3.14449455326735   -0.09687625805714
C         -11.38924700042900    3.33734466127516   -0.85482998998923
C         -11.23885756800472    4.30956372900279   -1.91184668163562
C         -10.43158131778827    4.09058276564881   -2.97134290929550
C          -9.99602346855463    5.01876651432633   -3.95349066865315
S          -8.64288707644205    4.54272232765168   -4.92344561008248
C          -8.51267158371114    6.10484473776612   -5.67315722890013
C          -9.53457836255893    6.93712909186482   -5.19925656907456
C         -10.34378095856558    6.33809414246661   -4.22987662865950
O         -11.38430035186357    6.92562099680672   -3.57717369718842
C         -11.82092365835795    8.17774551375372   -3.77640131870456
O         -12.74948860678337    8.57807851995261   -3.13439553924317
C         -11.16809297875704    9.11414937595510   -4.78977102944975
O         -11.58646140891605   10.22345879389195   -4.95546452186920
S          -9.75872917208866    8.59004432729682   -5.73769425354926
C          -7.48199397747244    6.45289835683949   -6.55689026871936
C          -6.39284199929541    5.67288982885965   -6.86443067981205
C          -5.28247236440402    6.03595044233465   -7.66952801534224
C          -4.29022855928348    5.10212526859316   -7.71341202342100
C          -4.56935300004361    3.94416453282592   -6.95472911173030
S          -6.14661437549521    4.06674381550625   -6.20985959322751
C          -3.78166181103562    2.83693135015040   -6.69823754456422
C          -2.45988914280457    2.56072175912879   -7.11020791229354
C          -1.93842387930452    1.42578885793818   -6.56204721346011
C          -2.82250173538246    0.74950388639346   -5.68638844993545
S          -4.36667222723946    1.56959960578165   -5.64295865885881
C          -2.61775735732270   -0.35229199688781   -4.88386155767818
C          -1.40269072766253   -1.02198666822824   -4.74230170938278
C          -1.15118319111852   -2.10497424211360   -3.93500756454581
C           0.25473262164045   -2.41049194144900   -3.56540560530441
O           1.25132563831304   -1.94924965114980   -4.07683074128721
C           0.16345455048370   -3.33281001638563   -2.41717491152278
C           1.16490928241369   -3.83818777996050   -1.63970155194233
C           0.83195641745953   -4.67580099311497   -0.55141407393191
C          -0.53840388919708   -4.95980102199305   -0.28219398575111
C          -0.86417443758120   -5.78300534074268    0.81409070449786
C           0.12348415769364   -6.30500555188877    1.60155950110282
C           1.47816836537252   -6.02747793361883    1.33119549821293
C           1.82659209453691   -5.22920035546400    0.27800575298048
F           2.42657245797774   -6.55360942641652    2.11944582802034
F          -0.18791777870842   -7.08941985205040    2.64244955124337
C          -1.55356823520790   -4.42783851696108   -1.11063612156528
C          -1.20604436217947   -3.63682173281471   -2.17124461175053
C          -2.01931063613369   -2.98959371956407   -3.20022864737991
C          -3.31025101548543   -3.33908851731951   -3.50997996589316
C          -4.00761158413670   -2.92004015770848   -4.66032129770228
N          -4.61934375295794   -2.64692196878325   -5.59339090335043
C          -4.08009615381479   -4.24588122704043   -2.75258593978062
N          -4.76824481700995   -4.96065874616870   -2.17514295803427
H          -4.98616947383214    4.98471203379242   -3.49907766366643
H          -2.80101578583700    0.77149802365370   -1.89329846216152
H          -2.51228797152195    5.50252247049794   -4.70798446647607
H          -8.29175829029232    0.75578950748286   -0.16886186600224
H          -8.82398333338668    3.37104028657793   -1.44044200460642
H         -13.47063606783416    3.69922030374171   -0.22890855872779
H         -11.79344259478804    5.23074455071135   -1.81579913905111
H          -9.99351832194676    3.11003819000304   -3.10627098459291
H          -7.53209876120284    7.44418869366447   -6.98761391673251
H          -5.24709515567592    6.98436695705739   -8.17537996167825
H          -3.37033758192726    5.21935920404379   -8.25738829374205
H          -1.92470418285089    3.21031419444339   -7.77967699225377
H          -0.94213773657243    1.06983934849813   -6.75247538316072
H          -3.45577305094524   -0.66900842854964   -4.28038336763609
H          -0.52601300297627   -0.60844262738263   -5.22736045252225
H           2.19699338777722   -3.60151246264947   -1.84958371073610
H          -1.89639935888567   -6.00750659813209    1.03289923321916
H           2.86829302173750   -5.02553900053220    0.08511402836346
H          -2.58243529501182   -4.64679579706496   -0.87634321900538
