93
 SCF done       -191.505709769034          0.000639942873
C         -13.41341778202132    3.65941511028855   -2.34575857481889
C         -14.26194514510405    3.12756483970504   -1.41029006734276
C         -15.57131404427777    3.59146668664794   -1.16641818650788
N         -16.64530365704580    3.91549271615164   -0.92447484449002
C         -13.93303177130378    2.04310120726030   -0.57162290173771
N         -13.70260991324273    1.16499504392851    0.13112021791939
C         -13.70996110246611    4.78678391833862   -3.22625202886861
C         -12.57490198028098    5.04876316838432   -4.03786499916859
C         -12.55265367101556    6.05367781897441   -4.97601375475450
C         -13.71641119426030    6.80980259306257   -5.15087794475230
C         -14.85034297502773    6.52973643975551   -4.34997445710824
C         -14.85939823392424    5.53836758683568   -3.37475804438127
S         -16.20358608177157    7.52357770770245   -4.78191543562838
C         -15.25087266483181    8.27864723532998   -6.02666422428450
C         -13.97296439507629    7.83379137892599   -6.10173667534958
Br        -16.03964128459836    9.56100315133705   -7.14422556833984
C         -11.53059347278083    4.06745441396970   -3.72258870391610
O         -10.43231783577426    3.95313799865065   -4.25934998029242
C         -12.07144529381269    3.21790403340600   -2.65535216899654
C         -11.34754228094005    2.18489974264676   -2.11087433234469
N         -10.09764899068062    1.94888797668209   -2.52396448117061
C          -9.25305464750631    0.96552252022887   -2.11881078676257
S          -9.80438147553235   -0.40902821225803   -1.21585411853206
C          -8.21912893082661   -1.10304753924751   -1.34670752816186
N          -8.00734895657381   -2.35122973399004   -0.73796539344792
O          -6.90114063402043   -2.84348075428706   -0.83000369615943
O          -8.96105401608113   -2.84360591020657   -0.16364315816999
C          -7.33165756896970   -0.33031465032514   -2.04482098522940
C          -7.89795876969422    0.88433128554795   -2.47736528462122
C          -7.19721698433992    1.90411352579351   -3.21235111933300
C          -7.52287942408416    3.21327466288520   -3.10483911572721
C          -7.13623140736133    4.29953268686838   -3.93841166558054
C          -6.18663384429628    4.28115322760656   -4.98596996153167
C          -6.02700665682428    5.39885502820742   -5.88071074426498
N          -5.07600455286067    5.37303540534695   -6.81580759026725
C          -4.30373502348904    4.31200722725433   -6.92885990432696
C          -4.50188513087010    3.17955889201660   -6.08311782757121
N          -5.41748547806920    3.19073841696100   -5.14389679853640
C          -3.70169913396733    2.01962123378643   -6.24515515767089
N          -3.04464223562367    1.09407397469108   -6.39632463081398
C          -3.27761172867070    4.31078242549202   -7.90391828966542
N          -2.44030517965050    4.28162483863607   -8.68556934434477
C          -6.88327432707515    6.55154077789913   -5.83705470072789
C          -7.79946902827091    6.57270807315254   -4.75345235768900
C          -7.87713324866287    5.49564489161602   -3.80218270985517
N          -8.77900799715718    5.73642374955004   -2.84996839870495
S          -9.47544713367565    7.15493284288117   -3.12306705967672
N          -8.65803504695745    7.54080606016840   -4.46008364248599
C          -6.74514845083785    7.52330286321808   -6.83178373846715
C          -7.51496979533714    8.63328418385778   -7.13384988473033
C          -7.23152884915540    9.50480506077224   -8.21177465163698
C          -8.15512476329625   10.49581168937670   -8.40399696447332
C          -9.21600125859441   10.43365753853672   -7.48666902775700
S          -8.99151941072003    9.12821173710621   -6.35165848656576
C         -10.34922266760405   11.23555791210973   -7.36997016547984
C         -10.72948130874198   12.38681664390613   -8.07847049819965
C         -11.92393565113100   12.91388156009252   -7.66556114902319
C         -12.54510869184545   12.19964060004722   -6.61742891307448
S         -11.54951647484509   10.83024601086407   -6.17349646259856
C         -13.77068648786903   12.49079294402983   -6.05386263914134
C         -14.44356554488122   11.77870407526251   -5.05837528558075
C         -13.98640549757082   10.65560251504203   -4.23149583390179
N         -14.90468167909789   10.13500656588563   -3.47352805422036
C         -16.04424059634449   10.85577885612882   -3.72073986681480
C         -15.77846043393932   11.92412761816138   -4.67495755599682
C         -16.98053188225597   12.64547081985963   -4.96194754936635
S         -17.16835027892780   13.92727411231655   -5.98076004411429
C         -17.99342297645791   11.97968172902015   -4.17312023490121
C         -17.38567520992211   10.87229171170354   -3.42122924335161
N         -18.33382588152288   10.19620295955697   -2.71216749217855
C         -19.45906827608925   10.80053648684647   -2.97108661408138
C         -19.33761518753289   11.93657941006027   -3.89546692449257
C         -20.38162961275478   12.78733473038925   -4.38527729324996
C         -21.66754130257826   12.68571112763854   -4.04593601385351
H         -11.67530684017517    6.23656539535822   -5.57754384971363
H         -15.74474564386063    5.36840857548294   -2.78524670833251
H         -13.24852002620657    8.19689967389522   -6.80777760812904
H         -11.74190196584970    1.54608960410018   -1.33102665210115
H          -9.76645444322758    2.59521570664468   -3.26331166087664
H          -6.30963429780795   -0.61908933323433   -2.21198842319171
H          -6.40179820197432    1.58543733019720   -3.86859973883347
H          -8.21863546288767    3.52188514003786   -2.33508219789033
H          -5.90959885063518    7.34839107958486   -7.50029928950721
H          -6.35334664926435    9.37194207146107   -8.81886002755831
H          -8.09521745038554   11.23989449591318   -9.17788627250983
H         -10.12256565219501   12.80182724513602   -8.86284270045155
H         -12.37702379956990   13.79351049424291   -8.08699664294238
H         -14.30443775932717   13.33524800898816   -6.47270957241146
H         -12.98540403116932   10.26343731352883   -4.19664516623279
H         -20.37132799416531   10.45507453642960   -2.51899558554223
H         -20.05963171903628   13.55519793265444   -5.07707638608463
H         -22.02449936184342   11.93617994172195   -3.36035166197241
H         -22.40569934877888   13.35720761200598   -4.44859014222078
