102
 SCF done       -173.926008739465          0.000917915535
C          -0.83157023005554    3.50688297242118    4.64338653437902
C           0.26236710912118    4.33943220241916    4.69985028717082
C           1.38182494822316    4.11592297580722    5.52291537745355
N           2.32352675240873    3.97913837049992    6.16714167640953
C           0.39688448048449    5.53521745510160    3.96780565654209
N           0.56791857092943    6.53220808690324    3.42265225078764
C          -1.03868354533871    2.32087299625223    5.46918128572644
C          -2.32198734026383    1.79569506714096    5.18509695774606
C          -2.81826622022628    0.67711387937004    5.80549992995943
C          -2.01030055309500    0.04712465986538    6.75948038953390
C          -0.72968709377257    0.57767640401326    7.03512224428575
C          -0.22553671842854    1.70889780260194    6.40341963284448
S           0.10366082587062   -0.35800425748279    8.24097461014163
C          -1.26491416772130   -1.43169517261943    8.35733027176561
C          -2.29224813827603   -1.10997318579017    7.53696336973687
Br         -1.20907957099721   -2.87819063673316    9.55175540693354
C          -2.97408490711005    2.62607188431670    4.14771673945589
O          -4.03976996990932    2.39065244180407    3.61081323832129
C          -2.00830096040119    3.69406492061540    3.83412315918117
C          -2.12973199036468    4.56601446389204    2.77115219594455
C          -3.31838563745692    4.91304847616376    2.12484024087323
S          -3.26429925491318    5.38368953699291    0.44225617969240
C          -4.97440285982938    5.56380986698006    0.34232369450138
C          -5.57811025704186    5.30538864492609    1.57237968078675
C          -4.64380691624986    4.97358874495341    2.59587848024457
C          -5.10526754406966    4.83708374765920    3.90732651135402
C          -6.45182305012758    4.88209652496931    4.20297050200941
O          -6.73060075226738    4.75993937945475    5.52003686231715
C          -8.04646204620099    4.73627828328675    6.02720631467627
C          -7.40254378451395    5.05155743993473    3.13902576415383
O          -8.72864491762566    4.99371520366489    3.46917323478734
C          -9.68409045948303    5.11398002736246    2.44579706272219
C          -6.95822114254782    5.28356512927656    1.86431227566363
C          -5.56960719212417    5.90716409627398   -0.92861789635437
C          -6.46403952219562    6.87148356462884   -1.16121406888461
C          -6.96759047516526    7.83636337817335   -0.13448386327642
C          -7.00846734109805    7.13911204217768   -2.55024887596203
N          -6.54500332635488    6.28097153525220   -3.60579257586298
C          -5.29272307231497    6.36465660922760   -4.13808497895944
C          -4.33807618644735    7.25684660987820   -3.77751127367724
C          -3.08013593208977    7.35198433045875   -4.40742911652876
C          -2.08450693025370    8.19050016834112   -3.98490492080739
C          -0.80174236857080    8.37655243662166   -4.55551892701102
C          -0.02322052068762    9.28624161662789   -3.90657412061612
C          -0.63803200160149    9.86935608420671   -2.77679059910734
S          -2.25360211233683    9.22772561716638   -2.56904810183021
C          -0.11613993158429   10.80534368955198   -1.90575167384311
C           1.14843581263775   11.43123922662059   -1.94461566920388
C           1.35944803917639   12.31071757104631   -0.92705646413149
C           0.28148002618595   12.43358756277718   -0.01249789442472
S          -1.02720113163703   11.37671723458016   -0.52521929538164
C           0.27365719862501   13.24649225404839    1.09099591475143
C          -0.72931474068320   13.41803336792451    2.06946584834875
C          -0.62974536383334   14.28701006645708    3.15813458984262
C          -1.81204671281895   14.18846148878309    3.93571820885053
C          -2.21000628664729   14.81567295068464    5.09264361628576
C          -3.47019921960782   14.47885344778213    5.62203857326406
C          -4.14133376344684   14.91998615715434    6.74943660468219
C          -5.40527892166708   14.24773445755332    6.83426494337813
C          -5.50838983968785   13.39277252085073    5.75520918524078
C          -4.32029685067549   13.50048930092270    4.96537719841797
C          -3.92872967940725   12.87411246781126    3.81452744197104
C          -2.66493223034287   13.21047275397247    3.28158369266267
C          -2.00320941896383   12.75489873792342    2.16029582868664
C          -6.40741889599947   14.41679447566773    7.85776097611995
C          -6.31872261367870   15.23296137710428    8.90499424754319
H          -3.80052194998231    0.30060214496762    5.56655680094414
H           0.75977063510732    2.07168489257523    6.64403986694542
H          -3.21131417526349   -1.66424555389707    7.47979719702932
H          -1.22187401715701    4.97746144377918    2.34559317026720
H          -4.41853972846837    4.70618801421656    4.72628888473878
H          -7.92774714831997    4.63634487776702    7.10606788859166
H          -8.61276902247422    3.88579780762266    5.64322584002504
H          -8.58416863411029    5.66022687932655    5.80533356009762
H          -9.64389970081867    6.10044356525879    1.97198714369681
H         -10.64957875912585    4.98919115180185    2.93378431347383
H          -9.55854397237300    4.33722761982543    1.68513397733041
H          -7.64855792362254    5.44233465161194    1.05392365918210
H          -5.17322062470248    5.34890147337734   -1.76775975410995
H          -6.47717886629202    7.68981563884040    0.82211447514355
H          -8.04502294007897    7.73747939416760   -0.00117708804284
H          -6.77549849624550    8.85474817832479   -0.47153123382162
H          -6.76290196593065    8.17253725683299   -2.82237688146382
H          -8.10132885000616    7.06617834821209   -2.51485783857027
H          -7.04676271187618    5.41927187562710   -3.74338998143666
H          -5.10143123986158    5.65972274672490   -4.93609212167424
H          -4.50945803064294    7.92814364786380   -2.94913893192925
H          -2.88256488689511    6.72689424767331   -5.26811930424054
H          -0.49778473124472    7.83130125292247   -5.43210619182027
H           0.97589255380539    9.54990586172629   -4.20483336476948
H           1.86376532108659   11.21834224223626   -2.71895743103135
H           2.26415614447209   12.87861040129773   -0.79590476844641
H           1.17055395643336   13.83741589319514    1.23808369370453
H           0.20659843064699   14.92567966704927    3.37592644842844
H          -1.58260686385489   15.54267899091605    5.58909838197965
H          -3.77793146775591   15.64806836191444    7.45136505269079
H          -6.33878382963310   12.74651756862733    5.53430143929315
H          -4.55186075696264   12.14236583715293    3.31889312186087
H          -2.37377670207750   12.02016886323408    1.47032279280215
H          -7.29416116955908   13.80706572163555    7.73033554194117
H          -5.45750307594030   15.85545852626658    9.07644349610822
H          -7.10818595355827   15.30343697500142    9.63336357291660
