110
 SCF done       -197.476677776039          0.001302607407
C          -1.97943496013142    1.00539027959565    2.69873216270083
C          -1.88518702579300   -0.10260574402088    3.50149287567327
C          -0.90953911927250   -0.27608842758451    4.50336039386681
N          -0.13969981680200   -0.47120433688728    5.33226044387793
C          -2.75086175131361   -1.21165901728600    3.41662881513680
N          -3.43076369618232   -2.13633148760582    3.37848398796358
C          -1.09867522495448    2.17011985285143    2.74089263528642
C          -1.49626342618099    3.08636110779367    1.73236520733751
C          -0.86137290145848    4.28784651915654    1.52985992251000
C           0.21667089641505    4.60398624997053    2.36345833579952
C           0.60686143049761    3.68462709255038    3.36601159398041
C          -0.03423975643427    2.46763063090237    3.56919572374040
S           1.95676516294108    4.27575703426545    4.28487013350178
C           1.97714400077334    5.73196594368860    3.32585129468050
C           1.02416268522436    5.77396337141027    2.36435873779220
Br          3.25385617093768    7.05826233147581    3.68359938131165
C          -2.65300534850085    2.53174570146005    1.01981416529307
O          -3.26651836347962    3.03664914664001    0.08301284707774
C          -2.94779072295111    1.24503346854489    1.65493200728750
C          -4.02860305045672    0.48716219265568    1.27018048278395
N          -4.82272201025800    0.91222904053970    0.28263430008898
C          -5.96687174217223    0.33630595786647   -0.16578562943299
S          -6.57272270397659   -1.15248359756100    0.49033628584822
C          -7.95106648932795   -1.01887514216112   -0.55299880289241
N          -8.91416223891512   -2.03470331258575   -0.49704117113764
O          -9.88074416075463   -1.93670424747231   -1.22972838205571
O          -8.70852102013106   -2.94295466253765    0.28853192137367
C          -7.93933283232078    0.09883522265053   -1.34507579091830
C          -6.79700157212232    0.89447151189058   -1.14357634922262
C          -6.49605007360783    2.12095237161421   -1.84373177100831
C          -7.42430164489195    2.91965311402307   -2.39236639491112
C          -7.13158939227792    4.15218104587285   -3.09669394975852
C          -5.94214136434193    4.31534361877036   -3.81986792725387
C          -5.70085193822020    5.50304321400514   -4.46788871146026
C          -6.59853680804680    6.57784019252968   -4.33207521013535
C          -7.78676394396830    6.42076795681164   -3.63342575350394
C          -8.05746675841357    5.19967156293571   -3.04954492547848
C          -6.03916037943091    7.73414487896884   -4.99671293626723
C          -4.81886723493009    7.36325303044263   -5.58664825564507
C          -4.53734779924660    5.89350209277478   -5.35103939791581
C          -3.17976384619708    5.66467468143335   -4.67174067047570
C          -3.05562739548301    6.41699362402676   -3.35174134203609
C          -4.61198104409830    5.19192932785429   -6.72833410896576
C          -4.54316956002907    3.67066399774248   -6.70698713175510
C          -4.08350997838149    8.27861526170739   -6.29798906730072
C          -4.52197579998091    9.60989419865124   -6.37973896862419
C          -5.72659896938500    9.96991356057074   -5.75993349070594
C          -6.49416255815751    9.04233725619507   -5.08674399282994
C          -3.73612916101302   10.57012141112594   -7.11556703317904
C          -3.67805065048365   11.89449600726521   -6.84029814219705
C          -2.94538663041880   12.86756864828445   -7.56577719257736
C          -2.52560282067342   12.81006864438533   -8.86642597158818
C          -1.80833300251912   13.83472720100610   -9.54317890263874
C          -1.62352330694126   13.61493931794583  -10.87069107228321
C          -2.18903886081229   12.40398739147319  -11.33704424693451
S          -2.90856319915599   11.52290400726486  -10.00447020616759
C          -2.24624978773361   11.94540830066657  -12.63577949121445
C          -1.70547510600665   12.55792488517517  -13.79113366126273
C          -1.99009382775628   11.90255333165057  -14.94733776641195
C          -2.77869760904624   10.73466093695244  -14.77645930287206
S          -3.10536212202699   10.47910950127925  -13.07115584060898
C          -3.26231800834200    9.93714119284290  -15.77899436725930
C          -4.05200838635526    8.78465787416495  -15.57650043882195
O          -4.23935839608567    8.33992263262839  -14.29653385361075
C          -4.93893650224086    7.22015820230262  -14.31852075907771
C          -5.24940520902528    6.88113790645079  -15.61980818210984
N          -5.97667139814773    5.75487788299908  -16.02718369788240
O          -6.43574941910769    5.03099121478717  -15.16706345445748
O          -6.10792867399309    5.56748876498523  -17.23102744409834
C          -4.69289877332334    7.90326213080492  -16.46251971505659
N          -4.83855864949935    7.91179393961850  -17.80876980005614
C          -4.64937971051746    8.95157412782701  -18.68681000797866
C          -4.81145651340923    8.81780064351185  -19.99929882616215
H          -1.18838958307855    4.96552825040171    0.75683576828036
H           0.29951161161442    1.80239182773990    4.34790676055706
H           0.89365697467633    6.59598426654958    1.68449177518658
H          -4.28418562233864   -0.44960495934838    1.74825458217172
H          -4.53282630943056    1.82111249615137   -0.12367743241714
H          -8.71797284821637    0.30953072766597   -2.05485070325338
H          -5.45481814519220    2.40976350736822   -1.89056794106890
H          -8.47281643180767    2.68474674167310   -2.26449978656174
H          -5.23809529985840    3.49953254320727   -3.87333116473915
H          -8.48971492738761    7.23610208732731   -3.55128799199117
H          -8.98242451233021    5.05590240467115   -2.50958700398449
H          -2.38810816865518    5.98774988344335   -5.35118627730929
H          -3.04711776195129    4.59834554327624   -4.48445849815156
H          -3.17724887449554    7.48712564192551   -3.50553121297692
H          -2.07648964247442    6.24026363241802   -2.91198370291667
H          -3.81408582678879    6.08245418494867   -2.64729469436029
H          -3.79327010670070    5.57785269933376   -7.33984739746146
H          -5.54857544218357    5.49231591705042   -7.20545714933649
H          -3.63032615714771    3.31968755024978   -6.23267626014086
H          -4.55556304771278    3.29685468532182   -7.72866557151667
H          -5.39836625220265    3.25031717848573   -6.18471776611440
H          -3.15387770968290    8.00047435726256   -6.77378174160650
H          -6.07457207214650   10.98842736463865   -5.84414622532160
H          -7.43135249523309    9.33133032641079   -4.63483309150553
H          -3.10749141198400   10.16418572892593   -7.89667251781611
H          -4.18663144806471   12.26229691788771   -5.95786549180919
H          -2.73232968356807   13.79455437603995   -7.04746807734378
H          -1.46622623385111   14.70981266672731   -9.01875486668725
H          -1.12076217126215   14.29737471592311  -11.53219135417659
H          -1.12931522251064   13.46408878407794  -13.73694281465541
H          -1.67204938781166   12.22167657355626  -15.92430502040440
H          -3.00192809130098   10.19530435784414  -16.79240454679055
H          -5.16784360372477    6.72829367788191  -13.39456949472047
H          -5.26480220700382    7.06552762218260  -18.18461836304041
H          -4.38912432728402    9.89814858011797  -18.24031727773051
H          -5.08349473787973    7.87465516444997  -20.44044610789101
H          -4.67975102436746    9.65041821656479  -20.66299548414092
