88
 SCF done       -173.880998359628          0.000679883153
C          -4.04761308166316   -4.76757547844607   -6.59333561750372
C          -4.62172290764656   -5.88893768135609   -6.03490575599353
C          -4.00120802979224   -7.15165273006787   -5.98969377914640
N          -3.54855313077336   -8.20588055640402   -5.92162373605518
C          -5.91416995367539   -5.96046253564780   -5.47916036486917
N          -6.96439369736261   -6.12213550502615   -5.04073441306939
C          -2.74897761503392   -4.73761457826531   -7.26687136632678
C          -2.55119466518876   -3.44373562855712   -7.80608404764620
C          -1.43005936252521   -3.10032452478854   -8.51898814132536
C          -0.45098528389476   -4.08249823475659   -8.70858008183116
C          -0.65377626150551   -5.36940013547028   -8.16127327107402
C          -1.79087175574851   -5.71697235247547   -7.43992671825777
S           0.67845199461769   -6.43010048243069   -8.51196443568817
C           1.47606588108335   -5.14550778514704   -9.38025987472302
C           0.78472185336341   -3.98234183431159   -9.40598840608845
Br          3.14766030475447   -5.46213735237281  -10.17222394482383
C          -3.71590237968888   -2.59489069948755   -7.47185972563652
O          -3.86805589508667   -1.43094927646188   -7.79275732120555
C          -4.61845095117272   -3.45204234126690   -6.68345669335060
C          -5.80678995982805   -3.02653674189573   -6.11154273025028
C          -6.36117745679055   -1.76807424158645   -6.28222068855667
C          -7.57480233243806   -1.39270386401204   -5.72146665193417
C          -8.25889887794487   -0.18148563458033   -5.93424045921257
C          -9.47809487780518   -0.11552146180864   -5.31113346971911
C          -9.78728253057710   -1.26451534414290   -4.56691519673188
S          -8.50006099912849   -2.43482393383920   -4.66749498653077
C         -10.95510045670955   -1.54030501151781   -3.85156540047646
C         -12.14719364521980   -0.80036533258171   -3.81998063305359
C         -13.14117866133252   -1.40497643809398   -3.09532689826736
C         -12.75954277458811   -2.62282796504695   -2.50276941576897
S         -11.09467571739847   -2.98272085659103   -2.89183165420297
C         -13.61056855166908   -3.45937972523162   -1.78949871033311
C         -13.28622890972730   -4.60828625289086   -1.09006595515165
S         -14.54755737074062   -5.68252252479318   -0.48376673239915
C         -13.43281372180696   -6.81297625039261    0.29488912655646
C         -12.11088943121995   -6.33446483904392    0.09269577277057
C         -12.06029466330274   -5.15241902838507   -0.68013358639863
O         -10.79749244749515   -4.74597498507273   -0.85767333834306
C         -10.02231545063100   -5.66487918087336   -0.22861174879226
N          -8.62283729754149   -5.47805289727136   -0.24670851713435
O          -7.95628798083975   -6.33359470925624    0.30683049820662
O          -8.19045537920695   -4.48465936479024   -0.79235299200754
C         -10.76391971974304   -6.65833999315520    0.36608586944715
C         -13.97143555866227   -7.93773201831885    0.87457438711831
C         -13.38895519154623   -8.90228250896804    1.70051757107832
C         -13.99749911447724  -10.11480120263268    2.05223896521432
C         -13.26372438389458  -10.88372705360827    2.92443007672392
C         -12.06625920060501  -10.28330764081966    3.32366789216719
S         -11.86745468549277   -8.73923278931873    2.53467015360178
C         -11.12482443546614  -10.76202396317185    4.23969036932170
C         -11.07231853371820  -12.02918705094039    4.83600106823538
C         -10.02739318305095  -12.18115500064344    5.70993773360282
C          -9.22676542186901  -11.03287027378606    5.86121778325794
S          -9.82387199961149   -9.75893088391267    4.81912434562713
C          -8.14652077047368  -10.93085884125427    6.72184653729270
C          -7.37256123986828   -9.81374879609833    7.01825641105892
S          -6.05247446148113   -9.99873144122590    8.18246107708198
C          -5.67996890414421   -8.33516145516925    8.06836669061096
C          -6.53295281277140   -7.67026496584602    7.17264765447190
C          -7.47142044434052   -8.48187358778589    6.57908376305879
C          -6.13501657295842   -6.23838591787695    7.18109587325081
O          -6.62658858350694   -5.31930899597101    6.57479378043217
C          -4.98259176803362   -6.17629448486699    8.14387015313356
C          -4.74967895738580   -7.43347170508996    8.64431838947686
C          -4.32562616025560   -4.93401463172381    8.41391151207651
C          -3.30639516970913   -4.75789109097149    9.25932019057077
H          -1.31087289098919   -2.10602343016402   -8.92017348933199
H          -1.89625534495129   -6.71263505066154   -7.04305193084547
H           1.12856468254533   -3.08966667106205   -9.89594285508921
H          -6.35494060401158   -3.72581792923880   -5.49198951539934
H          -5.84964885326469   -1.04806374991675   -6.90475957341850
H          -7.84544589816553    0.59839603435347   -6.54846417783208
H         -10.14170975827975    0.72846126043924   -5.36895000238659
H         -12.26123832909060    0.13339751708570   -4.33985387068029
H         -14.13130646990724   -1.00279452647787   -2.97226229115864
H         -14.65939721055737   -3.19158053157138   -1.80227989691189
H         -10.35640222137586   -7.48304702433107    0.91056345843729
H         -15.02387152774384   -8.10015158271840    0.67328421706515
H         -14.95166605981531  -10.40514031112418    1.64976058493743
H         -13.57932603053242  -11.84254036693228    3.29338255580487
H         -11.78312232857019  -12.80180469557603    4.60582400785652
H          -9.82301415540624  -13.08512347277222    6.25573989694794
H          -7.89060336106511  -11.84031259540824    7.25144846349403
H          -8.20484746061661   -8.14641529973643    5.87008947693862
H          -3.99389199253034   -7.70863955878044    9.35691838035863
H          -4.72615917731778   -4.09334660460255    7.86104740718956
H          -2.88313471616713   -5.57210318591883    9.82255560994640
H          -2.86262858804778   -3.78928563555746    9.40728735840676
