105
 SCF done       -206.562789848261          0.000729444237
C         -13.12337639337459   -9.45006331111410   -8.50158894161155
C         -11.89758941544004   -9.38233285079946   -7.87014851503379
C         -10.75564272113057  -10.09690368026636   -8.28448920968990
N          -9.79032252897231  -10.65590448805707   -8.56035560412351
C         -11.56770949837198   -8.60582611416594   -6.75156563340022
N         -11.15691127660302   -8.02484113294512   -5.84659279767221
C         -13.39154571440375  -10.23823971991147   -9.70464234328854
C         -14.73165353981164  -10.01267370963299  -10.10014007986323
C         -15.29126033081999  -10.60543154664453  -11.20359144570319
C         -14.48815458092402  -11.46987350550691  -11.95722764603754
C         -13.15201512228664  -11.69236754387966  -11.55375986026103
C         -12.58578095582399  -11.08878772802803  -10.43591372197844
S         -12.33731381307592  -12.79551409753303  -12.62162597341711
C         -13.78491213085873  -12.93929762046246  -13.58250493818562
C         -14.82527925231389  -12.20075858205545  -13.12932609004901
Br        -13.78608445765322  -14.05021045517273  -15.09444691955800
C         -15.36683863117763   -9.07783450129733   -9.14680448676660
O         -16.51278983405523   -8.67409751465693   -9.20290035293237
C         -14.33085645429616   -8.76508676004856   -8.14290458862096
C         -14.53916312560804   -7.96178017548780   -7.02976096273283
C         -15.72827028638605   -7.30108131467092   -6.76709240435074
C         -15.95943616844347   -6.50839916345140   -5.65084754232013
C         -17.12534009768076   -5.76275482551688   -5.39288032942740
C         -17.07692579418228   -5.03523528458371   -4.23207843481384
C         -15.87554714341340   -5.19322220296837   -3.52622975522021
S         -14.80376812103422   -6.28667717319806   -4.36080513896368
C         -15.48265485787403   -4.57804493260481   -2.33608626193863
C         -16.11711944475037   -3.56246686016957   -1.60838171252057
C         -15.39702287947056   -3.14865481039020   -0.51552320365597
C         -14.16090435007950   -3.80011531993867   -0.35121781453705
S         -13.97253233523803   -5.00959261379513   -1.59456414662352
C         -13.29011998342261   -3.56603009120029    0.71483563075155
C         -11.99515570753428   -3.98628606398723    0.95848386882433
S         -11.40392010184499   -3.83369974897347    2.60152440330422
C          -9.84626015836677   -4.53037458140523    2.22946589102618
C          -9.82271535631991   -4.96167393133708    0.87022631760818
C         -10.98050407378802   -4.57442072363023    0.14594886955813
C         -10.98841824496602   -4.76827218565132   -1.23458541826396
C         -10.02125629924580   -5.53013541185452   -1.85008577626804
C         -10.27387608593095   -5.84974202412699   -3.29337069596492
O         -10.78328958653648   -5.05642927561370   -4.04714248757191
O          -9.98105547823632   -7.09432351132591   -3.59609235752177
C          -8.94687172498436   -6.05594161262438   -1.09749906676804
O          -8.03194148225045   -6.81618590358985   -1.71960969844247
C          -8.83442324815911   -5.72387106456970    0.24364063832554
C          -8.86300960654195   -4.53141443461825    3.20182429010994
C          -7.49300072565985   -4.63824402900355    2.98744870664183
C          -6.52387415076248   -4.75670318519480    3.96821013126363
C          -6.69450264611007   -5.11289397192301    5.30388025109187
C          -5.66439444771673   -5.27637202889824    6.24704182977872
C          -6.07477781349008   -5.78594140819168    7.45353535188423
C          -7.45065055265206   -6.04976761088869    7.50438357589809
S          -8.21878121229757   -5.58454638319420    6.01164866250975
C          -8.19763976923067   -6.69798818780224    8.48515288884642
C          -7.78214295568792   -7.33693103819027    9.66268245008817
C          -8.76681167534305   -8.08842721390651   10.24789767805551
C          -9.98923447725135   -8.09465866800864    9.54320032851760
S          -9.89218073909815   -7.00162310392126    8.19429749774171
C         -11.11544061029374   -8.83729657046157    9.87822166866654
C         -12.30397094489639   -9.01722820145509    9.18626034758867
C         -12.70445456870655   -8.76562824489034    7.87890292548840
C         -12.02981154417253   -8.57085303696702    6.63621900608337
C         -10.74427800758910   -8.96580992016395    6.31262925999782
C         -10.11215328663686   -8.67684308842070    5.09182129321560
N          -9.52873655098755   -8.42541961260598    4.13306067162469
C          -9.95917791566694   -9.77337135263730    7.15444506785561
N          -9.30340737600669  -10.45377107266589    7.80782347279000
C         -13.00392543760704   -8.06880271810038    5.66489832476420
C         -14.29336104207745   -8.15779827786877    6.24160960713142
C         -14.16076312894284   -8.64181687384501    7.63379750686601
O         -15.05672387080680   -8.86566739464910    8.41979516396282
C         -15.43520223124098   -7.84217629843894    5.55080105537134
C         -15.29509734638595   -7.40676200911524    4.22762962712552
C         -14.00243336390976   -7.28749966199117    3.67159486285021
C         -12.84491074028175   -7.61298903753153    4.37176545825738
S         -14.06533874616282   -6.73655940501758    2.02131073326988
C         -15.80853793807013   -6.70369996898249    2.09866640434178
C         -16.31637975083246   -7.06434795911647    3.29869584363327
Br        -16.80662424741997   -6.22224933113869    0.58560791634055
H         -16.31597762211116  -10.41035228795390  -11.47850751777192
H         -11.56210905248784  -11.29482754856880  -10.17284229109630
H         -15.79088579933545  -12.17116393382803  -13.60030967556685
H         -13.72813233015446   -7.83859006955993   -6.32079667941808
H         -16.53585914848289   -7.39027869616256   -7.47996249112375
H         -17.95942866325129   -5.77227323675700   -6.07145613690563
H         -17.87187965239187   -4.40538284833672   -3.87618828432691
H         -17.06742501259615   -3.15237832558048   -1.89606022833137
H         -15.71939565775153   -2.37316855263664    0.15670749813218
H         -13.73312168622378   -2.98388727848146    1.51668873010636
H         -11.74740506707520   -4.33462287586706   -1.85988638601337
H         -10.30475302341998   -7.33637310147302   -4.50222672944431
H          -7.37585484273284   -7.14860169098153   -1.09344948251924
H          -8.00374942040368   -6.10611587021182    0.81768105895508
H          -9.20089805922935   -4.31423057634418    4.20691631460603
H          -7.13809318662656   -4.54244114019178    1.97072366863428
H          -5.49313967639723   -4.62873560239503    3.66145001421310
H          -4.64207813294041   -5.03676967946416    6.01228865347283
H          -5.41803473295416   -5.99734057213533    8.27773052308638
H          -6.77434291830104   -7.26559358418399   10.02968601789161
H          -8.62890290355151   -8.68256699454607   11.13326873244355
H         -11.06368014962592   -9.30682531559732   10.85327237447750
H         -13.12872777502304   -9.38433788653985    9.79293384374071
H         -16.40753701764631   -7.93870260644927    6.00765753141823
H         -11.87913491301093   -7.51204387532948    3.90495504179279
H         -17.36747534681724   -7.09988888216299    3.52038277739487
