73
 SCF done       -162.702903507751          0.000903595389
C          -1.35002664129158    0.43493744602637   -0.32079411633911
C          -1.06418216776004    0.49890500652188   -1.65717961042116
C          -0.00675965856393   -0.20769373487974   -2.26996983645598
N           0.84023653031990   -0.75664702549761   -2.81522825712588
C          -1.81717734867410    1.22365066667924   -2.60800170018578
N          -2.40168304192923    1.75012262314475   -3.44299330133861
C          -0.68892703426965   -0.40774005696285    0.66299626049965
C          -1.40417930321072   -0.33527310286633    1.88507787851548
C          -1.02783495900186   -1.03676830025911    3.00571677541331
C           0.10780921721086   -1.84767530552922    2.91800920574431
C           0.81997817662539   -1.90986427749992    1.69418540737684
C           0.43986081647442   -1.20183806854639    0.56162864381516
S           2.19389909731145   -2.96540576267591    1.80801624430426
C           1.80062969404008   -3.30587494912454    3.47264830018851
C           0.69601470017299   -2.66285802184111    3.92235382780775
Br          2.88285103429483   -4.47664763554845    4.45782157834033
C          -2.54657443212325    0.58682408751849    1.74566393847732
O          -3.33483631536439    0.89789093299378    2.60399626857633
C          -2.44810576335486    1.12082433887637    0.34850430685383
C          -3.12338100248232    2.19011531223183   -0.13085535197015
C          -4.25390748531382    2.82087622506035    0.48042798736499
C          -4.66438034384921    4.14842480665986    0.37672170831238
C          -3.94825293603216    5.23458745544026   -0.29640225712788
O          -2.91101607682881    5.08874358329113   -0.89358728120543
O          -4.55797532587124    6.41400649333197   -0.16233806123176
C          -5.87161675354299    4.17326224553708    1.12726328581760
N          -6.13677754072527    2.97539965855224    1.59092621267606
O          -5.15492259408763    2.15617444335904    1.20610132186358
C          -6.74446361882799    5.30169675188871    1.39023143911509
C          -7.16464017973536    5.84758442051186    2.58626051063574
C          -6.63136448370388    5.56687599687620    3.91906711834379
O          -6.97862622465055    6.10962505288082    4.93802745844818
O          -5.64174693420438    4.66415432226806    3.88581637350876
C          -8.04482267268961    6.90626126136434    2.17095544494918
N          -8.08003406267070    6.95195382759345    0.85707468942935
O          -7.29665969765278    5.96644733154274    0.37853022757281
C          -8.80884950647077    7.82796041116878    2.96442230396924
C          -9.52230212729305    7.51034391854123    4.07361829443623
C         -10.27149464166660    8.42892762156363    4.87473785248341
C         -10.95071965461039    7.85298103100913    5.89366713911085
C         -10.80043629196377    6.44052573188422    5.95815033780130
S          -9.75147206824384    5.87967045527599    4.67964137762193
C         -11.36346745328043    5.57381680139509    6.86740072627550
C         -12.22017800931117    5.87607477325474    7.95528875005278
C         -12.60875369353604    4.78809918168641    8.66825389919647
C         -12.08782270454405    3.55553333011143    8.18590835673937
S         -11.07132399900678    3.84704992319705    6.78527668944948
C         -12.33654072645615    2.32060844927832    8.71735260709956
C         -11.85112436873057    1.08173632636242    8.25881734892124
S         -10.79449686743187    0.85208273302460    6.87536943388595
C         -10.73780294684502   -0.85503988256128    7.04364365730005
C         -11.49432001479559   -1.26451099959353    8.11726847731822
C         -12.11331638733028   -0.16914761100463    8.79188059450316
O         -12.84730984383311   -0.59910632626888    9.83885372286014
C         -12.70496493947244   -1.95277362456267    9.84063240525949
N         -13.37820153453931   -2.68251329050827   10.84955105369650
O         -13.23072097500317   -3.89030796372284   10.83254805571380
O         -14.04247296537174   -2.06391171799031   11.65222617197005
C         -11.90519392333577   -2.42206675662352    8.83358944886957
H          -1.59406656271387   -0.96180023825413    3.92075040627877
H           1.01682948033677   -1.27622752690472   -0.34497162770244
H           0.31151207804908   -2.75851681617205    4.92128235993068
H          -2.79670335383739    2.68288542183114   -1.03830879203479
H          -4.06890122454379    7.10336209015966   -0.63893814093840
H          -5.32279679379459    4.48995551316963    4.78548328078980
H          -8.86647091029978    8.83780610572108    2.58460373547964
H         -10.26010068654453    9.48295661080880    4.66160288434345
H         -11.55542799777611    8.39018383537162    6.60213050837025
H         -12.51964857757069    6.88431644963271    8.17744741841867
H         -13.25478107398157    4.81876942344444    9.52763745240321
H         -12.98091213315983    2.26617831847177    9.58512900422592
H         -10.16463671765684   -1.44196172990969    6.35663743667268
H         -11.66059455148994   -3.44764802072176    8.65021272896480
