97
 SCF done       -184.855716554945          0.000822263255
C         -26.86864530887575   -0.63886493152205   -5.32312271134279
C         -27.98499883681136    0.15054927739821   -5.45774120355461
C         -29.24886841568262   -0.32699506747134   -5.85734135002750
N         -30.30442038341591   -0.65968306704684   -6.16463012657485
C         -28.02005624258679    1.54156303211859   -5.23350694025683
N         -28.12160639974890    2.67677385635243   -5.08928526281582
C         -26.79696085590512   -2.06620958540022   -5.61974892353632
C         -25.46263602103648   -2.50177302461573   -5.43423413615209
C         -25.07458623358685   -3.80313571172137   -5.63497929837701
C         -26.04826591576542   -4.71849135432369   -6.04984705430940
C         -27.37871968429190   -4.27426249862242   -6.23197297944769
C         -27.77315734445182   -2.95855468618597   -6.02119077649881
S         -28.42136851927857   -5.56931619391719   -6.73912318443447
C         -27.07279618431353   -6.67372485127363   -6.70170812694179
C         -25.90201414027494   -6.10523483988096   -6.32893961747786
Br        -27.33792110915893   -8.47371734348599   -7.15794540161427
C         -24.63138626999729   -1.36593046689261   -4.98037269924968
O         -23.48819031533242   -1.42889743322817   -4.58446732105781
C         -25.54618162544613   -0.19989209471789   -4.94866381316100
C         -25.20046706850386    1.03455313043823   -4.45806408361562
C         -23.88570573054153    1.50557039954159   -4.35699675169158
S         -23.46983278897112    2.78248697186598   -3.22390000166213
C         -21.78137018464873    2.83430234554840   -3.67626782476228
C         -21.59289590042966    1.91184601677742   -4.69601751025861
C         -22.73961007792357    1.18271655511158   -5.08247893224563
N         -22.39624749342412    0.39028464663770   -6.14732470344231
C         -21.14433999814663    0.62242531336914   -6.32850882600799
O         -20.57273856477237    1.52655416494343   -5.49878075163960
C         -20.87482688379538    3.70122601754108   -3.03822690712997
C         -19.55085783324728    3.78016287012471   -3.34993114122469
C         -18.64786083774805    4.64385892472000   -2.70924782552549
S         -19.11429672366289    5.72532666780334   -1.40442090343833
C         -17.50596491001520    6.39320874645937   -1.18592971566092
C         -16.67752548459275    5.78006617997420   -2.10260194480526
C         -17.29114600885385    4.81938511259298   -2.94430803052663
N         -16.32685829390144    4.31849307611134   -3.78492630508329
C         -15.25404422841654    4.94259896716868   -3.44963752561456
O         -15.36542426606858    5.84408189396136   -2.44474599598615
C         -17.20212437180741    7.37076949033398   -0.20452956020146
C         -18.13131854480872    7.86787630186925    0.64051053422911
C         -17.89531397573364    8.87454264236251    1.64085722004331
C         -16.88419356679786    9.78313512367451    1.47356787884635
S         -16.78317340868557   10.98311107848027    2.68680037074025
C         -18.13386706639464   10.26031887797127    3.50660918131328
C         -18.64803010186756    9.12747620164232    2.85649146858133
C         -19.74008700280883    8.44353115100739    3.45430795918002
C         -20.23697746141164    7.15831179609334    2.84217217899508
C         -19.19995366657322    6.04129735153197    2.98149292667956
C         -20.31477949102234    8.93004298014739    4.62364858184291
C         -21.55000916524776    8.30308376259672    5.21943912114281
C         -21.22425676022071    7.11776163513549    6.13118129138491
C         -19.76937029249515   10.06067159594533    5.27839004939821
C         -20.17278427175845   10.73665655161662    6.48998724126263
C         -19.41876389509388   11.84680977621298    6.72432098657456
S         -18.17891636227204   12.13219278287600    5.56874626644486
C         -18.68172475157807   10.72269049483205    4.69063824666594
C         -21.19819694612688   10.34055493307478    7.44163700535805
C         -22.04790228874014   11.21315642006592    8.00475268097647
C         -23.03909312295444   10.87411209456892    8.98133691738912
O         -23.85616580720178   11.88406168661799    9.40944408616076
C         -24.68718042013827   11.33723138722668   10.29947447345955
C         -25.78386748516065   11.63853044337684   11.15057527839033
C         -26.41264613522742   12.96184580541641   11.35900084641237
O         -25.87071834743494   14.00407795121148   11.07038911127660
N         -27.65038969082239   12.91742534265448   11.91548242941801
C         -26.07397330984851   10.43073232680992   11.74636417136084
O         -25.26575513412280    9.42574223445275   11.33966126768137
C         -24.41977152937937    9.97759392606663   10.44829053520634
C         -23.34836815512120    9.67078526103808    9.59368056549245
H         -24.05066794983838   -4.10530182503256   -5.48110151251392
H         -28.80106259809970   -2.67076126796276   -6.16576577137037
H         -24.97269514652940   -6.63956972452455   -6.25226184442425
H         -25.97459745080252    1.70127130801196   -4.09995764420419
H         -20.52855802698108    0.16653927115137   -7.07861490615154
H         -21.27621747219050    4.33306727143617   -2.25731315236665
H         -19.13370447988229    3.15915525338275   -4.13080799487517
H         -14.28960106138114    4.80701576418063   -3.89817070306060
H         -16.16505023645456    7.67143685295549   -0.15348628067456
H         -19.13629615290187    7.49346522513228    0.52757594491492
H         -16.20792340802320    9.83778440060376    0.64318211094862
H         -20.49147994296171    7.31338477394341    1.79378486907281
H         -21.14822506599590    6.82724297803706    3.33180692840096
H         -18.26739714959692    6.29846131192678    2.48675138085143
H         -19.58024957821070    5.12201295581933    2.54170970662718
H         -18.98473691906618    5.86069741910387    4.03238922842342
H         -22.23084546501973    7.98010706359238    4.43056105088196
H         -22.07981662014990    9.06609962050192    5.79035829084406
H         -20.82794790481927    6.28301387602573    5.55953839879513
H         -22.12172252695898    6.78307235383105    6.64725499976324
H         -20.47711566700574    7.39593454978710    6.87147335942555
H         -19.50161004200039   12.50614815690508    7.56611358730744
H         -21.22324762160762    9.30447169800251    7.74105892516117
H         -22.04351278843903   12.25289916467984    7.70965269892880
H         -28.13651632101307   12.05830475658356   12.08988599557745
H         -28.13157057031846   13.78849674662064   12.06503056539754
H         -26.80283466405096   10.17178188558991   12.48945609025068
H         -22.86801155735373    8.72781773639035    9.44224097353717
