100
 SCF done       -179.821205190613          0.000996827007
C          -4.51477053173556    2.28278478969354    4.25965192321656
C          -5.39108933982210    3.33724140153721    4.31705038933718
C          -6.00428498633245    3.79434935327814    5.50009423964515
N          -6.53387818891635    4.21886115430272    6.42702525981679
C          -5.85454499209130    4.04431449216004    3.19003247974793
N          -6.29840964760146    4.63994737100181    2.31332198012367
C          -4.15011630473933    1.42391887849077    5.38039715715573
C          -3.43491284166846    0.31089993077622    4.87720124593561
C          -2.97926018385156   -0.70041383217080    5.68644602836302
C          -3.23719595881903   -0.60651547462445    7.05896596472099
C          -3.94437322688900    0.51360461001653    7.55295671216658
C          -4.40989513100318    1.53499806353502    6.73283809718857
S          -4.12948969085782    0.44065167557370    9.27897027303721
C          -3.26651621693214   -1.06980101255900    9.31136283985768
C          -2.86345051927065   -1.50570930499185    8.09483427773475
Br         -2.93838348426008   -1.90817278571321   10.95280225467699
C          -3.30374516720211    0.43683842167066    3.41240213915016
O          -2.73415749230797   -0.33886614087694    2.66747500762127
C          -3.93607716778207    1.72184974036954    3.06005290493975
C          -3.87901071157914    2.32079696555769    1.82538907308844
C          -3.52920670296440    1.71343735590008    0.59492298601536
S          -2.66063019243821    2.63700354988128   -0.60620329905854
C          -2.52308393481803    1.25447773330731   -1.61487327703568
C          -3.13207241649439    0.14745153748042   -1.10642443227033
C          -3.18740300011288   -1.18085911710604   -1.78158267614659
C          -3.74853735064441    0.40900437526050    0.14580952624591
C          -4.55816719070868   -0.49390765379845    0.91409133742312
C          -5.66189944333366   -0.04153035665407    1.56065842643805
C          -6.25661676255025   -0.56797679572907    2.73455566821891
C          -5.67813116994725   -1.51933913560067    3.51769658759908
C          -5.97324015954248   -1.79443330495100    4.87288738513003
S          -5.26708609240343   -3.21354806308283    5.60063950034036
C          -5.86788596593372   -2.80577641685895    7.19271537988082
C          -6.58711726098375   -1.60612600309593    7.13324838651846
C          -6.62641590536010   -1.04787664105735    5.84427022205880
S          -7.30080243578786    0.56153720200418    5.54335728634618
C          -9.07854429718216    0.12979339146476    5.52043979725882
C          -9.48233819592503   -0.65557829487124    6.76123256317639
C          -8.86617579669127   -0.06532176289297    8.01951268493844
S          -7.30956945053407   -0.88172401418852    8.56318148196109
C          -5.53864632549385   -3.67616215918440    8.24456810408841
C          -5.78382038533405   -3.49236399917864    9.57995099815920
C          -5.39239659426108   -4.39256808663269   10.57122372242713
C          -5.61421533137515   -4.17751579644042   11.91548265801758
C          -5.19804613974365   -4.98738980020359   12.99446121359398
C          -5.54404446508212   -4.50238968576263   14.22247867041249
C          -6.26317831112739   -3.29092843273764   14.17456397074872
S          -6.47731410279847   -2.77659321025868   12.51790670302303
C          -6.78038315522225   -2.55068583626259   15.22309095863288
C          -6.67746165700262   -2.81263003257850   16.60659381326141
C          -7.31851748601035   -1.89213684636570   17.37364520864839
C          -7.97386503522205   -0.85580403767796   16.64658857627497
S          -7.69861791606145   -1.08970070941855   14.93112855865686
C          -8.72104902581472    0.10632079898750   17.27175887026979
C          -9.49639932022452    1.19116439838103   16.77763294406833
C         -10.27793830898188    1.93239732568944   17.68875447632809
O         -10.21573830715814    1.50110090383135   18.97840267664258
C         -10.45699304253677    2.36712950337415   20.06766861243734
C         -11.11457816459946    3.00575331998002   17.25583214853109
O         -11.89188795847808    3.58891325613341   18.21581956192003
C         -12.75973925899308    4.63131942882471   17.84119032497663
C         -11.14315971244703    3.40077759323133   15.93775178521790
C         -10.35304815074323    2.71288220004764   15.01020385379709
C          -9.54061119684861    1.59984715432274   15.41781717087680
N          -8.87483688840853    1.08264499141588   14.39604686886544
S          -9.23017126118599    1.90442244619834   13.05232609029280
N         -10.25416482631230    2.96302507935476   13.70572112744883
H          -2.44251834146295   -1.54189297028080    5.27662687566014
H          -4.94549503874742    2.36925429632732    7.15376108928192
H          -2.32074583068142   -2.41897653062761    7.93215056940493
H          -4.05193516714615    3.39051657119108    1.77566936272630
H          -1.99397501848629    1.33890390923687   -2.54444812501947
H          -2.67577854215090   -1.14691447076178   -2.73968052823810
H          -4.22263388091313   -1.47904365954712   -1.94241251385810
H          -2.71336209418859   -1.93483322485457   -1.15444741817969
H          -4.22251611831659   -1.51630934065866    1.00474006725179
H          -6.05297635217037    0.92286556405833    1.25423266758019
H          -7.12802461543849   -0.04290585486196    3.09488925505638
H          -4.86495458234476   -2.10375274907482    3.10790669244342
H          -9.58410443573512    1.09434134607507    5.48242124975546
H          -9.29076798293313   -0.42777240098269    4.60750418770177
H          -9.18130100007096   -1.70129586129781    6.65455505381807
H         -10.57194360372742   -0.63640336849891    6.84343273859528
H          -8.65911722991272    0.99809846140888    7.89894039046287
H          -9.51369728273382   -0.20614996591669    8.88466972101014
H          -5.01005821166637   -4.57274029930764    7.94345108918097
H          -6.28842225144337   -2.59661959901696    9.91037717777132
H          -4.86319579980060   -5.29244442531953   10.28702479391381
H          -4.64816463777799   -5.89769535926852   12.83281044761007
H          -5.30453132091190   -4.98521117491835   15.15296678434591
H          -6.14012234699341   -3.65926008281913   16.99556329149016
H          -7.35800449799148   -1.92107712094389   18.44870162462161
H          -8.75827510826243    0.00947897379273   18.34945882088625
H          -9.99330348852708    1.87813397858090   20.92547211831544
H         -11.52461595649164    2.49277247939941   20.25600597666205
H          -9.99736437071952    3.34551687089318   19.91642956777479
H         -12.20953952355757    5.49077730524813   17.44642527136655
H         -13.27423718506829    4.92145411461633   18.75611588713430
H         -13.49367579296429    4.29605078837373   17.10227868761732
H         -11.76028455217979    4.20929813700721   15.58826165943179
