94
 SCF done       -178.447092592084          0.000468826136
C          -5.31198284116860    2.01982372267435    5.78497682943124
C          -4.64643669024783    0.84292087437446    5.51034496471794
C          -3.44552034130511    0.45507695354816    6.12912166382485
N          -2.47135242372933    0.07089704112352    6.60454371025538
C          -5.03945549535733   -0.11234560453959    4.55651189684947
N          -5.26796034345059   -0.94288643855458    3.79438912827858
C          -4.81284093760682    3.07004547685662    6.67415545204075
C          -5.64238134494458    4.20569818246430    6.52582381685637
C          -5.41531350795768    5.38643532565124    7.18552710369558
C          -4.33732693513794    5.43614984487648    8.07581326232744
C          -3.54629070872740    4.28051167856508    8.26045173247575
C          -3.75593672711881    3.09557671778906    7.56083369855778
S          -2.30518922648697    4.54372348994387    9.44825668521900
C          -2.85153839604323    6.18382675375384    9.66352249179474
C          -3.90928224544753    6.52023896697579    8.89016363165566
Br         -1.99419885337488    7.29450182564802   10.90620097952145
C          -6.75880101211684    3.87228232157197    5.61762465513165
O          -7.66377182048281    4.63087347982710    5.31266347019877
C          -6.54815330956959    2.47268392287954    5.21908615161680
C          -7.46881483455625    1.71845955846040    4.49718507753344
C          -8.68136636245364    2.23224024894722    4.07557294650090
C          -9.69159815158178    1.55084977076571    3.41227049305442
C         -10.91293457700731    2.13780116474059    3.03110935370782
C         -11.76263440488113    1.28707981865375    2.38043879822646
C         -11.24625301735516   -0.00961278348509    2.21596231460188
S          -9.65104420009700   -0.12798106514298    2.92823500074847
C         -11.87596177207569   -1.05911759144621    1.55144696237626
C         -13.14009089292770   -0.99983533533996    0.93204310751526
C         -13.49647225071986   -2.15522735509921    0.29666615163752
C         -12.53065078528211   -3.17635909006972    0.38809081551821
S         -11.16024921465401   -2.63526921779769    1.33364434819788
C         -12.60553566137511   -4.41695699874286   -0.21401302010777
C         -11.62755812929576   -5.39998212339604   -0.12616079160415
O         -10.52245477872834   -5.23720378501141    0.66253404264568
C         -11.52706910369267   -6.63924236994576   -0.76205982239384
C         -12.19804740743974   -7.54361312171867   -1.70010378216579
O         -13.24236308856672   -7.44255622496777   -2.29143320024373
N         -11.32807277497668   -8.62832905438649   -1.78194577492254
C         -10.17428086260963   -8.52248961861689   -1.00180824836113
O          -9.30595995098503   -9.35412268048664   -0.93613984576904
C         -10.32253687922260   -7.22127125562803   -0.34850631193440
C          -9.71433692994860   -6.33535064704721    0.54848355123457
C          -8.52950177731776   -6.46706074889650    1.26435067014967
C          -8.07910477534988   -5.57118957476503    2.21535972556462
C          -6.90172354177931   -5.77646901754345    2.91284153161780
C          -6.40901471407080   -4.98820250748173    3.94394339757718
C          -5.20851228963924   -5.22151547660363    4.63661035927171
C          -4.96262096695757   -4.32392420803362    5.64039808157050
C          -5.96084035957846   -3.34703991235216    5.77598872936505
S          -7.21836277353143   -3.58412080098825    4.59563742393972
C          -5.95900072369866   -2.30760250227475    6.70860437945642
C          -4.98041148530650   -2.07731932187624    7.68532636011874
C          -5.19391236994190   -0.94081836520204    8.42225027066440
C          -6.34248984402756   -0.22901659174464    8.05194095765833
S          -7.18336463820702   -1.06652418061663    6.76474566578154
C          -6.70911581119647    1.01364565524030    8.55600593725345
C          -7.75225777609357    1.80328803064262    8.13029425231212
C          -7.93920044728543    3.10482417228952    8.58522184663757
C          -8.86857880922312    4.04987463612218    8.12266226211276
C          -8.72499783682722    5.29325207122234    8.67692660806638
C          -7.68125939753365    5.37668952015353    9.61746945707699
S          -6.90417817090750    3.81954553854042    9.80002306849902
C          -7.23587602098767    6.48318240879476   10.31819520285285
C          -7.69892539952897    7.81968972785552   10.20798438515138
C          -7.02870930588222    8.70578741985924   10.98325554126649
C          -5.98268150224189    8.12635459502086   11.77303970421479
S          -5.92868174032646    6.38027372619595   11.47141032502824
C          -5.14151311324770    8.74652605400744   12.61376086720706
H          -6.05707591863266    6.24043033142757    7.03328709120474
H          -3.11376592036568    2.24646305457347    7.72571152499667
H          -4.37130499969114    7.49095710576131    8.89276072601608
H          -7.25067273804174    0.67817999322148    4.28922603046466
H          -8.88310210826799    3.27440323797753    4.28198191450586
H         -11.12838364160532    3.17015758161163    3.24162129236837
H         -12.73307026518982    1.57166582218343    2.01725748205643
H         -13.75286585005756   -0.11754738399210    0.95656557334230
H         -14.41728291541182   -2.29933652834268   -0.23953330846935
H         -13.46573930670294   -4.64916337000804   -0.82341790386177
H         -11.51686343329397   -9.43249255883684   -2.36263354270037
H          -7.96187616057456   -7.36292961223545    1.05752357774174
H          -8.67470011829024   -4.69417420758295    2.43237322823935
H          -6.30316368924162   -6.64004760386776    2.65049978860835
H          -4.55677288699405   -6.03745378157214    4.37975551909371
H          -4.08885078739145   -4.34605186310977    6.26506106796509
H          -4.13540456031899   -2.72553953392084    7.82218596598220
H          -4.53825120952705   -0.59357499766659    9.20061712976637
H          -6.05894484271439    1.41240403199735    9.32667328116005
H          -8.42602629508667    1.43520661831615    7.36779827302015
H          -9.59756458583669    3.80174231256326    7.37221996377266
H          -9.33613426155591    6.13946864709677    8.42107035772090
H          -8.50654580682407    8.07974309955386    9.54701416574174
H          -7.22925766128620    9.76144184930209   11.02637104459709
H          -5.20422588376878    9.80941937919147   12.76636613404451
H          -4.38013937187570    8.21165325014141   13.15078312169620
