74
 SCF done       -133.313946407154          0.000420829846
C          -2.99422094371433   -1.47711197184064    1.16077279273247
C          -3.88540619141901   -2.46222857364670    1.49915217193039
C          -3.54018615265735   -3.82121214645739    1.64999820157747
N          -3.31392163370875   -4.93740820295260    1.79337070077598
C          -5.26695864349226   -2.25872096291596    1.70084661836582
N          -6.40295222149527   -2.17086472731175    1.84410848718066
C          -1.59405553584009   -1.67317768446732    0.81092013539613
C          -1.05928065175970   -0.43488674173851    0.37792274274816
C           0.24468839710917   -0.29440594230730   -0.02962183256259
C           1.06018490884503   -1.43113906836406   -0.01003824129043
C           0.51854163570789   -2.66252447694467    0.42997217649503
C          -0.80063485902379   -2.80458386079707    0.84214544480806
S           1.70212095056429   -3.93354011641839    0.38630525972846
C           2.89145993299602   -2.81022444771479   -0.21638487467842
C           2.42846574477711   -1.54757416810553   -0.37726542526645
Br          4.63217461921599   -3.40932292687147   -0.57265944090699
C          -2.09762959665038    0.60909968480178    0.47207440312213
O          -1.94343322829521    1.79799350441594    0.26684866666136
C          -3.30196549980030   -0.06962485675457    0.98768471660780
C          -4.42429546899068    0.55241190393492    1.46585521311145
C          -4.89053812355504    1.85695086800979    1.20497415113560
S          -5.83987130140350    2.62532279594807    2.45780939369264
C          -6.11988614908725    4.02055608400432    1.46739402148417
C          -5.53758651639022    3.86960239210135    0.21664430482425
C          -4.85403768562330    2.65275709011544    0.06409891215276
C          -4.26334948514976    2.23810091925999   -1.23866669540591
C          -4.87678769696198    3.03506469692180   -2.39570292809168
C          -4.17785360156059    2.71493667002895   -3.61989466643990
N          -3.59967706977782    2.45393936399986   -4.56962424603693
C          -4.75245299941930    4.53806580144150   -2.07350996359411
C          -5.14417148104465    5.34128875928957   -3.20973849996084
N          -5.48781950600943    5.97342970416491   -4.09671780079318
C          -5.64748731113282    4.88674704457292   -0.87589643078274
C          -6.88350794096033    5.09468079365699    2.00244756930739
S          -7.36842161380655    6.49654114912155    1.08426255179362
C          -8.20793804402192    7.17033983419712    2.43347461699909
C          -8.91310112785534    8.46491309522807    2.25427907232112
C          -8.11092285562713    6.35828176276866    3.54750667585682
C          -7.36614075231782    5.18643329072256    3.28323485097002
C          -8.68963358736242    6.61138120203493    4.84514746948825
S          -8.68297821168450    5.33791398312393    6.03919648973561
C          -9.47364150630748    6.33696806797953    7.20614039536616
C          -9.80497102942120    5.76962815290317    8.53948711146146
C          -9.72031159124630    7.59163524862371    6.70050368842057
C          -9.27477344886066    7.73078317145168    5.35828189286885
C         -10.37764422928289    8.67166764519317    7.39833496791885
S         -11.15634392752575    9.93144507448723    6.47324960815503
C         -11.66176920159245   10.75318481296253    7.91340759113872
C         -12.44105383993115   12.01575850414178    7.82744620205110
C         -11.24124062314527   10.08724346823985    9.02130652602846
C         -10.51671034635041    8.91075810584839    8.73579220418377
H           0.62521545913749    0.66115974962844   -0.35480961778093
H          -1.16640643210497   -3.76183861347248    1.17431452634507
H           3.02612741598962   -0.73094029732471   -0.73904617797114
H          -5.02712494513649    0.00299587054410    2.18054413827474
H          -4.40217410016995    1.16393711520538   -1.39020528950708
H          -3.18182758380199    2.41940725247473   -1.21065092032650
H          -5.93546573104546    2.77584797044688   -2.52341057966828
H          -3.70451026127619    4.76029397005460   -1.83749976375760
H          -6.69112564288411    4.95288802438235   -1.20553774355375
H          -5.37094517717845    5.87441743368345   -0.49631110869826
H          -8.92611076009567    8.73978333140623    1.20188846918714
H          -8.41100033853673    9.25945417999301    2.80800845688334
H          -9.93973575180816    8.39368095794721    2.61267960767276
H          -7.18657291424940    4.42697382641273    4.02434384409174
H          -9.79926435422827    4.68269134685270    8.49592470071117
H         -10.78909716295113    6.10807158572563    8.86089259005563
H          -9.07313679942174    6.08044539582906    9.28709418446385
H          -9.38069681883469    8.65765547290663    4.82826645585516
H         -13.35691291903868   11.86596080120106    7.25614004398833
H         -11.86188007098870   12.79340302107595    7.32922369040269
H         -12.70150220045395   12.35892153200312    8.82585072493967
H         -11.44187082932195   10.42742572120173   10.02219131883243
H         -10.09012483959378    8.29042058167872    9.50123149670858
