100
 SCF done       -176.076701215209          0.000999539040
C          -5.82677327795544    0.57724995674586    3.16293187750651
C          -5.43270958125705    1.62227868614149    2.37300384514206
C          -4.10354921657993    2.09290699138449    2.30479258117452
N          -3.04425630556464    2.52250169358717    2.19932292513657
C          -6.25108172367109    2.33647277590033    1.47139202199039
N          -6.83847539569751    2.96937333222841    0.71382886906854
C          -4.94045600656603   -0.21161378385171    4.00458840838357
C          -5.61380636229002   -1.39846365706153    4.38396792305209
C          -5.01282138997355   -2.36415208775037    5.15478489197907
C          -3.70576968133772   -2.13102418234111    5.60018363661338
C          -3.06198155178546   -0.92039437660740    5.24587226224905
C          -3.65621404061862    0.04273263159940    4.44251781779375
S          -1.47922209123439   -0.80250350781738    5.94009674293418
C          -1.68421034595310   -2.36464151120888    6.66874978023142
C          -2.88088147118602   -2.94889214786520    6.42098010654703
Br         -0.30607173444508   -3.05523279368991    7.72010181494847
C          -6.98909438022754   -1.36709032596412    3.83966404243821
O          -7.79761410619091   -2.27305241184381    3.85764534065213
C          -7.15462160203061   -0.01828435883524    3.25614123229597
C          -8.28543972569176    0.65533504344762    2.89661894577391
C          -9.67430149337105    0.38579502055776    2.95591542827616
S         -10.58545029049769    1.31962252460813    1.77796033825852
C         -12.03557119621523    0.52039908196457    2.19841396659223
C         -11.87603937402948   -0.38239321128963    3.20294558889386
C         -13.00270067859247   -1.18334327255137    3.76707870431361
C         -10.52899969952297   -0.45059212797357    3.67926683703251
C         -10.21389798792645   -1.26816101553841    4.81091534678209
C          -9.20561955456981   -1.10223923760317    5.69094400738140
C          -8.90508341717528   -2.10739585821481    6.65849971028859
C          -7.75109396142627   -2.16974934338812    7.35053077755919
C          -7.28630765877087   -3.30091649303445    8.11327795730070
C          -7.55371749715956   -4.59493983268664    7.87808889551532
C          -8.39497113329217   -5.11207570954901    6.75137177956805
C          -6.88985900000387   -5.67448142015785    8.70043787827862
N          -5.78615223063729   -6.24078256562563    7.95307606722229
C          -4.49202665368883   -6.15695859104278    8.30969882738319
C          -3.45590599026061   -6.36432274388743    7.45882896910218
C          -2.09794458596562   -6.42020251323344    7.86379423756907
S          -1.69845922109000   -6.56843676792682    9.54326746302199
C          -0.01523563851293   -6.61743538467342    9.17420571634386
C           0.25339115746572   -6.50394242976740    7.85419345098448
C           1.65606154377062   -6.54486679739773    7.34749562629155
C          -0.94305638952450   -6.36965951678441    7.06209261679968
C          -1.03937320832129   -6.12931168342359    5.66817779309222
C          -0.05055060276303   -5.80171889536614    4.78673404485567
C          -0.30879178910194   -5.51886832702306    3.43448073634190
C           0.68810740805828   -5.23128174865160    2.53704415440265
C           0.54434538454543   -5.00335607367510    1.16326065459076
C          -0.54726648773612   -4.68475470171124    0.38409376549024
C          -1.82889455995806   -4.09145520945038    0.63298385170689
C          -2.19980703443928   -3.28175858567133    1.68669084542860
C          -3.41199073604484   -2.57321776840758    1.73661719481702
N          -4.38085696243490   -1.96127282260949    1.83546474561320
C          -1.38065217241487   -2.97082329447453    2.78154324048266
N          -0.76077721391812   -2.67967391460552    3.70475889126541
C          -2.64203279794261   -4.26912274047327   -0.57189809187812
C          -1.81856794470537   -4.77652442567048   -1.60488601700441
C          -0.45744926125574   -4.98343437851178   -1.06669291515279
O           0.52504861257933   -5.35174566439834   -1.67350308771683
C          -2.28873705381076   -5.03015874909182   -2.86888622262377
C          -3.64354076990002   -4.78335955158553   -3.12170745571426
C          -4.46212227206042   -4.29561752579646   -2.07777582804271
C          -3.98259701979620   -4.03132125250901   -0.79958400068623
S          -6.10545561839970   -4.07929786646102   -2.60042799588914
C          -5.67397215468674   -4.63633983386018   -4.19534629187453
C          -4.36878571668537   -4.96821576536230   -4.33125198147616
Br         -6.99013594776565   -4.73272626291052   -5.52828133603279
H          -5.53915512996253   -3.26728181537993    5.42370411722006
H          -3.12368530243816    0.94481256596308    4.19151988115200
H          -3.16896541282954   -3.91244798831265    6.80294191690376
H          -8.09838593641108    1.61292038164993    2.41933370895457
H         -12.94267102841057    0.76112736662924    1.67846407624637
H         -13.92997613924450   -0.93544374657226    3.25730758786102
H         -13.12302032920675   -0.97880347088693    4.83010869096437
H         -12.81348193234971   -2.24901948582526    3.64245364567228
H         -10.87308510789952   -2.11393784420438    4.95702344431170
H          -8.55097510691593   -0.24368558883715    5.62719270378174
H          -9.63412715544501   -2.89614454949155    6.75658601814545
H          -7.07143440182076   -1.32594484619491    7.31338531990078
H          -6.58861399630096   -3.06416614221486    8.90847433297743
H          -8.08550937900922   -6.11780440170298    6.46882575957712
H          -8.32936180926153   -4.46086392582655    5.88104967379554
H          -9.44090565320250   -5.17483709199818    7.05273146577348
H          -7.61431859283776   -6.46896455501520    8.92177408738078
H          -6.50556853831843   -5.28027440807337    9.64215477490406
H          -5.97509697354756   -6.42195565459681    6.97680923914475
H          -4.30532646286697   -5.94366739171784    9.35351565344144
H          -3.67524849303121   -6.52489751788989    6.41166364142955
H           0.68465567486628   -6.72393496131129    9.97879935317233
H           2.32247152313424   -6.86060782013349    8.14682782280644
H           1.96845451407575   -5.55351220770414    7.02197626721677
H           1.74943971699558   -7.24317417458860    6.51822778918531
H          -2.04182873475340   -6.16278664291950    5.25838305526119
H           0.97089030672198   -5.70378569123449    5.11052860061241
H          -1.33176514873136   -5.59427305052924    3.08594604324064
H           1.70666005049829   -5.27723418667353    2.90173651117784
H           1.43697205290807   -5.18352989348110    0.56866256451430
H          -1.63559506628809   -5.40797182823630   -3.63962726129768
H          -4.64972267303929   -3.66818817931225   -0.03544760593140
H          -3.93282247390780   -5.32934197015464   -5.24473682927078
