97
 SCF done       -191.961150122829          0.000678002758
C          -1.91680144853166    1.31100334334926    1.04727929699794
C          -1.73253360195976    0.03972233687818    1.53189148187308
C          -0.47047617627076   -0.55358345253749    1.72657362160502
N           0.53372375869364   -1.07504131167350    1.92489207791566
C          -2.77850035320477   -0.83674275608685    1.88902887736880
N          -3.56804359427276   -1.61376450437493    2.19034831009733
C          -0.85910979650060    2.21840221873958    0.61265727334541
C          -1.45834004956206    3.40038417733186    0.11932998021226
C          -0.72728761426699    4.48310287412836   -0.30336149044114
C           0.66691604171901    4.39136013409615   -0.23712988494875
C           1.25704569415618    3.19821490390127    0.23604156376159
C           0.51755183522527    2.10080332952079    0.65958456204170
S           2.98886660967233    3.31885613888292    0.28473317673993
C           2.89489448891741    4.95526717756730   -0.30551044778945
C           1.63392832032496    5.38616125432313   -0.54472949835794
Br          4.46128767297595    5.96249942705481   -0.50781305105850
C          -2.92929832243647    3.28806999242641    0.21805718383376
O          -3.71894879528917    4.17372238670553   -0.04579711696131
C          -3.18338979258195    1.97127370392926    0.84198370564446
C          -4.39462226622654    1.61668778851175    1.38209743028976
C          -5.61269599113067    2.23898447169471    1.02422957371563
C          -5.88894850888060    2.66312504740256   -0.30461138218872
C          -6.95651034595796    3.57372569233389   -0.60359957060475
N          -7.07307887388574    4.05116925063807   -1.85331528462424
C          -6.27265031380649    3.61646236692119   -2.78368153685744
C          -5.33559252513936    2.59941454441038   -2.51583672352641
N          -5.15059568404390    2.15833041753678   -1.30475410441475
C          -7.77892322572568    4.08848935116051    0.43531759892457
C          -7.67272830102183    3.45152150286066    1.68800134943035
C          -6.61311895080203    2.51396342455542    1.97961486255958
N          -6.66503380078052    2.08048759769105    3.23710011377613
S          -7.94891573270478    2.73780795189235    3.95558833765956
N          -8.47433837175592    3.63106901711365    2.73656421153187
C          -8.43900692887001    5.34988218906191    0.28054193812371
C          -9.10431141852820    5.72796967799882   -0.90710546292927
C          -9.38923160017898    7.10240213711697   -1.22500508514796
N          -9.99145392326596    7.41489127092602   -2.37353571276273
C         -10.32037862746725    6.44967581024822   -3.20808774589400
C         -10.06733653110044    5.08293201788137   -2.87813497967661
N          -9.48384294300999    4.75656958177195   -1.75042467091328
C         -10.46201176932962    4.05637471840114   -3.77239774938655
N         -10.77912656005870    3.25614690342819   -4.52844839056128
C         -10.95097883665714    6.78537264869635   -4.42939527828005
N         -11.45387103000188    7.02974174998804   -5.43002067929993
C          -8.89705434385825    8.15883842281116   -0.39669532593915
C          -8.43688729276942    7.75622236971140    0.88616759963922
C          -8.24702352399624    6.37098726009102    1.24035526566370
N          -7.77506227490185    6.24171529656322    2.47723497570067
S          -7.63828451120811    7.69649427346727    3.14747910357622
N          -8.13428845226704    8.57109752022067    1.88961128453195
C          -8.76811057661740    9.45294394904626   -0.91359400197867
C          -7.75677700872330   10.35279774768172   -0.61351227354369
C          -7.55592458580876   11.61140051720685   -1.21719456085910
C          -6.31500763820722   12.15322298133978   -0.99805214749531
C          -5.48015288363977   11.33067187617930   -0.22674267948331
S          -6.34904915845642    9.92007871289482    0.32367164172697
C          -4.11514477178722   11.43485536978106    0.03483898045291
C          -3.20953256086937   12.46367785650272   -0.27692140767100
C          -1.91207855732072   12.16458151769247    0.03902560676861
C          -1.72554333469156   10.88079142264218    0.59994858697281
S          -3.28272431729443   10.08861325657073    0.75871511004617
C          -0.51590424406886   10.30586044555006    0.92758946392607
C          -0.27100920274492    9.00942489621875    1.40983097221502
C          -1.18718984063870    7.97311715585636    1.70104973231272
C          -0.47321504601597    6.85248284462262    2.14562578292713
C          -0.90712942636771    5.59752310105741    2.55654836012715
C           0.06102845873610    4.68128884174832    2.95208022255942
C          -0.03513050736367    3.35833900432790    3.39943496438552
C           1.26553607809601    2.84804065216655    3.62993543731478
C           2.18271271846655    3.86083642860554    3.34563530883215
C           1.47442299134980    5.01688919456828    2.92136284111372
C           1.91037884093824    6.25929548717128    2.52013357309593
C           0.93829437941025    7.19593626934616    2.12903066893524
C           1.04094352441285    8.50510583126669    1.68184171237523
C           1.53480015258896    1.49599708334329    4.05908415426472
C           2.73798112049648    0.93141891975267    4.10575812934179
H          -1.21304329293001    5.37730591973911   -0.66118423689278
H           1.01513479820867    1.21894375810016    1.02721486475128
H           1.39132896157615    6.36770822957702   -0.90916406695388
H          -4.43989055753114    0.89691693748482    2.18972949194739
H          -6.39609912500906    4.03550433084993   -3.77292584005775
H          -4.75895196825014    2.13218342522429   -3.30216468654601
H          -9.41273715698970    9.70049824794080   -1.74759092682578
H          -8.31807638687905   12.07146437283205   -1.82088944267785
H          -5.98312327972749   13.08987898355846   -1.40903989682663
H          -3.52708037061674   13.38875230057124   -0.72316261504883
H          -1.08160291755793   12.82661304607123   -0.13325046475868
H           0.35717174985700   10.92792225060937    0.76926420911007
H          -2.25451652592957    8.01328107718388    1.60430895520671
H          -1.95818477493074    5.34683892437067    2.56945238915951
H          -0.94989827873350    2.81426883215757    3.55502970908409
H           3.25034848236882    3.79591436536536    3.44169599039731
H           2.96053146377926    6.51610486204423    2.50692103746371
H           1.95142495320495    9.06214471672566    1.55265470711523
H           0.66184554108749    0.91853018076687    4.33470629832783
H           3.63140049889798    1.46063195604420    3.82090588040964
H           2.86373216547492   -0.08913172918575    4.41922088158601
