87
 SCF done       -171.413240685823          0.000293132451
C          -2.58498433429202   -2.69605155111529    1.61822449554400
C          -3.51891737903904   -3.50700191518524    2.23671578588806
C          -3.21656943330319   -4.51486306559413    3.16309475534186
N          -3.06693993194598   -5.36322853860471    3.92747833743146
C          -4.91382519229258   -3.45736802153186    2.04757552244430
N          -6.06077959956142   -3.49680053163726    1.96494350737486
C          -1.14108477901831   -2.76332803968399    1.84211763370146
C          -0.51505387695533   -1.76883709175129    1.05229402769499
C           0.84370236421971   -1.58430139265385    1.03789009148683
C           1.62606526787618   -2.42392687353697    1.84141730343032
C           0.99210270841841   -3.41217161026120    2.62633365778374
C          -0.38643026807335   -3.59744577277237    2.64185231230653
S           2.14497770078423   -4.34041063429930    3.53971416746742
C           3.44556576080041   -3.39917416915448    2.86012326662303
C           3.03987649402591   -2.43955891487954    1.99605442664218
Br          5.21736288207463   -3.77390465432513    3.35450749625941
C          -1.55398263337191   -1.03161916635659    0.29279846858361
O          -1.36418170268791   -0.10971479694111   -0.47843454752647
C          -2.82967741161895   -1.65511526738694    0.66784395047176
C          -4.07055634184943   -1.30249717906947    0.15367895925781
C          -4.34375394456285   -0.30640799279761   -0.76207285491986
C          -5.64624206726910   -0.09190103821607   -1.21344564388362
C          -6.12393283084373    0.85905353815220   -2.12598621989777
C          -7.47976735482595    0.78436034939804   -2.36020872760448
C          -8.11282771262578   -0.23074872358127   -1.63869691728554
S          -6.96220123594169   -1.09062409592557   -0.64875061401194
C          -9.45249057896951   -0.63434504672783   -1.60698510809410
C         -10.58237849725141   -0.14434039906360   -2.26455725714980
C         -11.73703478024981   -0.83462583547243   -1.96325245628292
C         -11.56390660732706   -1.88397408286168   -1.05128359977667
S          -9.88016977158129   -1.98924127115057   -0.59985923428252
C         -12.54575880390477   -2.77719235351556   -0.62165920817283
C         -12.45491320282692   -3.79738603115638    0.30059694427711
S         -13.79231636457197   -4.95998949384178    0.38252334922169
C         -13.02728884645776   -5.98224558904334    1.58500326795955
C         -11.80757543565588   -5.37782232592739    1.97402942817016
C         -11.49664741474355   -4.19114708628922    1.26633233202556
N         -10.35606247164907   -3.72110524189127    1.81660182256366
N          -9.92355243452173   -4.50843040286955    2.80031055809146
C         -10.76557915863163   -5.50673141189564    2.91970846619773
C         -13.59070207777398   -7.17513525689795    1.99647571417012
C         -12.90392848193686   -8.05971494123389    2.81777995201643
C         -13.35944098544501   -9.26396132181253    3.30807247450064
C         -12.55340142225804  -10.08181180442067    4.10056657586737
C         -12.87296575084967  -11.30957481970360    4.69749631908595
C         -11.85004528858690  -11.86214687201418    5.42971730023695
C         -10.67850185062674  -11.09139843304933    5.43180257605330
S         -10.90449198515773   -9.64211560332508    4.48627630606525
C          -9.46061561450618  -11.34636396277282    6.05606429274011
C          -9.11303382115971  -12.43137025433660    6.88263592613542
C          -7.82992157361681  -12.37854875406705    7.34607604663966
C          -7.09775696760450  -11.25239697216600    6.90032608613346
S          -8.10926239953047  -10.25473784043764    5.87270383144805
C          -5.79094798992729  -10.96701807892495    7.21202696947301
C          -5.01543565435739   -9.88618435541643    6.76980567722888
S          -5.53601468237174   -8.62242392917634    5.65607540327029
C          -4.02911377825583   -7.81157819116381    5.66678585527535
C          -3.13471840050837   -8.45951133128645    6.49114162605082
C          -3.69478013634626   -9.61841597011496    7.10441212910914
O          -2.79620409329816  -10.22615087002057    7.90116816295267
C          -1.66530165351710   -9.46920306356124    7.80572294515421
N          -0.53919628378660   -9.88226269053488    8.55709205355673
O           0.46024346917660   -9.19662531905754    8.45693071501068
O          -0.64702900303342  -10.87759133441314    9.24068608656649
C          -1.79898903799509   -8.39072144690770    6.97334834177936
H           1.29412917695983   -0.81896682061903    0.42543139497081
H          -0.82345754002868   -4.36675187510774    3.25652267405160
H           3.70827003367141   -1.76959076850521    1.48666948992434
H          -4.92015045574677   -1.87764387380474    0.50122659692539
H          -3.54850248358094    0.31559950977053   -1.14443320566489
H          -5.46950013064522    1.57486083751989   -2.59081659898396
H          -8.01337883123932    1.43422059561476   -3.03098941360877
H         -10.53796724255178    0.69162347667693   -2.93894339780018
H         -12.70148379383757   -0.59940558326127   -2.37798778412533
H         -13.50156626317615   -2.68248607796228   -1.12288142917876
H          -9.81257964523130   -2.90841825136977    1.57352465293328
H         -10.60160842677824   -6.24700629694006    3.67572074247908
H         -14.57694703803260   -7.43147531896670    1.63576644590025
H         -11.89347974597447   -7.78761281915784    3.08534614219391
H         -14.36376562403600   -9.60125901848117    3.09206246253782
H         -13.84272308226799  -11.76050944570980    4.58118693293272
H         -11.92234730822456  -12.79817730639090    5.95366827478917
H          -9.80982414239969  -13.21518813024094    7.11876830208680
H          -7.38514673660204  -13.11506269461864    7.99129933747160
H          -5.27972855255195  -11.65454833858134    7.87421270397119
H          -3.87534946469636   -6.92884745931409    5.07399989264214
H          -1.04535801925340   -7.66478720216559    6.74933447168939
