106
 SCF done       -198.030277375399          0.000647891891
C          -7.73193494083325    2.57022987873418    3.17297835809236
C          -7.79500852125014    3.70801318503110    3.93562605657447
C          -7.46107229146638    3.76360476838987    5.30535561797096
N          -7.19357954897645    3.87790781086735    6.41562571114038
C          -8.20755411884105    4.97391353777750    3.47231402459353
N          -8.54686631269984    6.02550939844529    3.15796135185393
C          -7.37399738589339    1.24382612519062    3.66034470157033
C          -7.48363489957827    0.31957333773476    2.59204597723074
C          -7.22045742860392   -1.02011240712977    2.73843983421942
C          -6.83500317272789   -1.47336158444460    4.00472378412525
C          -6.72616746314615   -0.54365587094525    5.06670437246643
C          -6.98878494935380    0.81231876942237    4.91617808753031
S          -6.23372718438233   -1.31507583547436    6.54330303802367
C          -6.18512951701203   -2.85478221844238    5.72729505939151
C          -6.51792345613658   -2.79634132064623    4.41529315468309
Br         -5.69410689460353   -4.39197297653120    6.68171310366168
C          -7.90461331408752    1.03150919490824    1.37486475687522
O          -8.01236757023289    0.56651839176385    0.25463180037042
C          -8.07195761708623    2.44047527059545    1.76717917738102
C          -8.33424193164773    3.48342980788668    0.91937898419891
N          -8.81932507834011    3.44998329127254   -0.33704721314493
C          -9.61143524455738    2.53984590136281   -0.98288927861070
S         -10.49983455274267    1.30298625773233   -0.17240424047517
C         -11.34497881020387    0.96453932337481   -1.64059032165978
N         -12.28840938415541   -0.06982880521549   -1.61690216426767
O         -12.88572785757162   -0.32011565784172   -2.64572449090863
O         -12.44437281384876   -0.63954321999539   -0.55037239253851
C         -10.96127750013664    1.75649596543502   -2.69317021979276
C          -9.95547536568810    2.66750904897688   -2.33503772512690
C          -9.37924575769247    3.62597772348484   -3.25126182859951
C          -8.11016902082458    4.06564013979833   -3.21240743352219
C          -7.53160042249640    5.05210724413969   -4.10258404998958
C          -6.13827935709363    5.07810231592275   -4.26145181306263
C          -5.56277290683016    6.00640318714053   -5.09532725663028
C          -6.36270848118324    6.97403852135582   -5.73069142920392
C          -7.74204283788074    6.96040851107906   -5.57795547247124
C          -8.31629671890944    5.99286422079014   -4.77895076617529
C          -5.50020241398477    7.89836290934630   -6.43234127309985
C          -4.16736816472200    7.49202234562922   -6.24698343541808
C          -4.10654826089927    6.20853876062505   -5.44602817163248
C          -3.21552686200725    6.34108970714224   -4.20286028649225
C          -3.62858902081045    7.51033665599587   -3.31590302925110
C          -3.59622233784727    5.10373692078784   -6.40216921950013
C          -3.62693889997316    3.68401986139953   -5.85221853621847
C          -3.13751266917976    8.21805005483218   -6.78930869647108
C          -3.41319601134133    9.39606772957715   -7.50598202612422
C          -4.75055754427471    9.78411444609471   -7.68450400431396
C          -5.78991220399857    9.04427305179761   -7.16200068524527
C          -2.30338753842653   10.15151103993249   -8.02457471607732
C          -2.36393731137494   11.40744998924545   -8.52202620595008
C          -1.25515368579588   12.14864518303476   -9.02870145518929
C          -1.44488815624204   13.49940369557962   -9.41453350814456
C          -0.36577689488460   14.32108054183603   -9.90107267079887
N          -0.62091715635941   15.56627469662510  -10.34418502464141
C          -1.82415440571004   16.05478271085962  -10.21656476263358
C          -2.87692950331432   15.27383246292411   -9.62761622416274
N          -2.67270041759997   14.02759694673202   -9.28832044544740
C          -4.16306014647546   15.83980296297077   -9.45013601484505
N          -5.19200405681646   16.32733052264667   -9.32180416308900
C          -2.08140407221939   17.36628018251249  -10.68768343876236
N          -2.29888175780700   18.43169464492962  -11.04815858164639
C           0.95570663805655   13.85000137223425   -9.95695383979706
C           1.14722216579962   12.50233183718950   -9.62406792905414
C           0.06229234296159   11.65916064300655   -9.16507345941435
N           0.49361384043539   10.42424006618149   -8.89126622844406
S           2.06972072051282   10.33749397986576   -9.17117193152469
N           2.31081194378876   11.84248644434509   -9.65431782284830
C           2.04657985366334   14.71728202112513  -10.34709242929775
C           2.12936671009020   16.05309825804083   -9.99151122244965
C           1.31353660941733   16.77448809624266   -9.00594092226689
O           0.77855984169390   16.20480569020313   -8.07793639880851
C           1.22133155681455   18.26114000068695   -9.21896738264870
S           3.49034014635393   16.80995003088128  -10.74394546058623
C           3.94680148163892   15.34000685353992  -11.50160665149079
C           3.10356973476368   14.32071559090642  -11.20454412379740
H          -7.31646653791078   -1.69852695933470    1.90545817533469
H          -6.88943301499936    1.47931168517250    5.75596303915880
H          -6.54003534606963   -3.65043275733324    3.76343785684682
H          -8.10752805572979    4.48749878844304    1.25610834642940
H          -8.68474927186506    4.29633020795858   -0.88661670974664
H         -11.37852874125565    1.66055657128887   -3.67904472781903
H         -10.04043592927705    3.95458280268960   -4.04077865114028
H          -7.41443604295779    3.61515439337860   -2.51373899874350
H          -5.53553934987256    4.36236806903050   -3.72168738517646
H          -8.35655982405884    7.70158560314545   -6.06598708696288
H          -9.38709522901277    5.98633218420322   -4.64285369549208
H          -2.18060954852212    6.47586530980014   -4.52353612719292
H          -3.26902497466694    5.41838210031008   -3.62359700989551
H          -3.54660969814611    8.45123717282041   -3.85509175954464
H          -2.98838005873612    7.56024743460329   -2.43820732903214
H          -4.65870676298336    7.39564999419623   -2.98486299007883
H          -2.57131334037676    5.35659805366058   -6.68243077160495
H          -4.20435396527152    5.14044834067503   -7.30997406106711
H          -3.03762815089593    3.59652330894363   -4.94327663901530
H          -3.20753400850560    3.00428444566880   -6.59076820502715
H          -4.64620418731917    3.36865571301456   -5.64634072498228
H          -2.10972091457572    7.91286241142794   -6.65446479533481
H          -4.97251910884950   10.67402050486408   -8.25200953885436
H          -6.81245082078615    9.35580627819949   -7.31344328130563
H          -1.33852146658221    9.66463652156835   -7.98116581849721
H          -3.29685159920826   11.95226548603033   -8.53609567107066
H           2.21715997070249   18.69851693001860   -9.25420185443825
H           0.64765456805041   18.71477052295217   -8.41509507232807
H           0.73004862057862   18.45878077484799  -10.17025418220655
H           4.81865619552135   15.31817062139074  -12.12517883307446
H           3.20692312875913   13.31918734681159  -11.57877197647111
