104
 SCF done       -198.422528716750          0.000360272958
C          -4.87881167213131    9.21043128478222   -3.91117342149543
C          -4.00882365440211    8.53069221720465   -4.72206186007622
C          -3.29874159104562    9.11976165577114   -5.78825584771155
N          -2.69147730596974    9.55325480552012   -6.66067927840652
C          -3.74552815895987    7.14835217379381   -4.62071724346912
N          -3.50652302934056    6.02549008618043   -4.60894307647955
C          -5.27506973256175   10.60409550721807   -4.04887706551249
C          -6.32686014596148   10.87325708691286   -3.13793811431048
C          -6.91768781010931   12.10908829893669   -3.03510788205121
C          -6.44777803817196   13.12897883072554   -3.86890706104697
C          -5.39268733186751   12.85238974897321   -4.77167919543034
C          -4.79616130137375   11.60279957165594   -4.87769302167399
S          -4.95916747156654   14.25777153853250   -5.69734451975873
C          -6.18505808328264   15.18381339901043   -4.87244430944320
C          -6.88427999782109   14.47940030016279   -3.95111726064513
Br         -6.42467496656452   16.99302124804950   -5.30415746799203
C          -6.62679732147191    9.65965744451399   -2.35075150936148
O          -7.44257128010410    9.55603449965554   -1.46227591439409
C          -5.64726044036888    8.64032995025735   -2.81810166745996
C          -5.40126150247226    7.47411022100839   -2.16947992313661
C          -6.20104362088322    6.95380272066019   -1.08971121245652
C          -5.56549458336708    6.64592092875662    0.08438208769682
S          -6.61667773370492    6.30542662404490    1.38645460573438
C          -7.98596322805153    6.47257535658276    0.32695768515338
C          -7.63307981910132    6.78926387381375   -0.99214564983019
C          -8.64309933646071    6.82816679295508   -1.98486596219700
C          -8.24314268748667    6.91914288352316   -3.43457811142166
C          -7.46422469441234    5.67594611707649   -3.86964182044006
C          -9.97724424033029    6.68753456452351   -1.61808510400073
C         -11.08797963152486    6.83923500593352   -2.62465944622696
C         -11.40966308908725    5.51942985619303   -3.33133008423835
C         -10.32829843259970    6.40795051913007   -0.27543244006095
C         -11.62162899575226    6.22057207709696    0.34410676242216
C         -11.51325875838612    6.02111979505115    1.68995331667185
S          -9.90377545124848    5.99608624823551    2.28768157277925
C          -9.31097386527687    6.30337876580540    0.68617813121950
C         -12.92727815772713    6.16817608623304   -0.28268046694693
C         -14.01741402688049    6.73778040773149    0.27166929799487
C         -15.35218124837074    6.68567651242983   -0.21801035265601
S         -16.44052767726443    7.93901305784857    0.27436867891250
C         -17.77396062636121    7.30805365655394   -0.64611893228890
C         -17.36348186915304    6.15358126277931   -1.35069507441342
C         -16.00444240023765    5.78862960698599   -1.07949488239063
C         -15.47723063448633    4.60541127370997   -1.63629358271327
C         -16.23665543073345    3.87720201419910   -2.50505618065261
F         -15.73401206195682    2.76168266527848   -3.05829351647915
C         -17.53250047828331    4.30204516993518   -2.85859663274852
F         -18.22920541697795    3.59210920314904   -3.76755284298204
C         -18.09809246459207    5.40822731309364   -2.29128124565935
C         -19.00884527378336    7.97095694025356   -0.55485073704661
C         -20.22353015390936    7.43359493947066   -0.89606693320837
C         -21.45453684671698    8.08897988397823   -0.85183506878822
C         -22.61894712481547    7.43366064502798   -1.20843649734503
C         -23.95088441021235    7.89818030231262   -1.24179450970601
C         -24.86299489068426    6.96369464528213   -1.65634246733634
C         -24.28987699872653    5.71701191201416   -1.96670573368910
S         -22.56291646965467    5.76203676305461   -1.72808210511267
C         -24.83678549199036    4.51378014410075   -2.39135444709798
C         -26.15612744606380    4.10591588000658   -2.66148191932766
C         -26.25571436569133    2.79410254092750   -3.03241308829165
C         -25.01939020491846    2.09836920290156   -3.06553703287465
S         -23.72709275802998    3.18820752528355   -2.62779049647033
C         -24.81961952163357    0.77889061205914   -3.39468800910027
C         -23.59458211816268    0.08151110524260   -3.38258258904845
S         -23.53567384905723   -1.56951603893512   -3.99311890024201
C         -21.85731442875070   -1.77302560209413   -3.68473432750281
C         -21.33472406339392   -0.62936590048756   -3.12915735959314
C         -22.31154998325535    0.40317782673751   -2.96305170994506
O         -21.74766118616648    1.48665207151358   -2.38811404622056
C         -20.44231075512499    1.17244422426790   -2.19618221568974
N         -19.62910655960334    2.15637199657224   -1.59246934776221
O         -18.47605026523124    1.84836805563834   -1.34963010359212
O         -20.12466201563396    3.23750738342095   -1.34576424499369
C         -20.12097338431593   -0.09024272961143   -2.61852616882476
H          -7.71702073737681   12.28304140092331   -2.33192177654817
H          -3.99077971693872   11.44117467516166   -5.57471101380394
H          -7.67423611702851   14.89364782959217   -3.35166844247483
H          -4.47798179267954    6.94442077602639   -2.37183892150619
H          -4.50825071551948    6.69734937364946    0.26421972172168
H          -7.63589115220646    7.80724407611200   -3.61052436966171
H          -9.11990388250402    7.00662040987351   -4.07024404305651
H          -6.50911011276278    5.60216096266244   -3.35581265628600
H          -7.26871312814273    5.71297488416054   -4.93917122796444
H          -8.03667621683291    4.77684826348018   -3.65247597672541
H         -10.82747429058878    7.59670648174920   -3.36492603873264
H         -11.97399906599873    7.20742591917774   -2.10651504022066
H         -10.59662560189715    5.22440415610153   -3.98952301045377
H         -12.31455991722536    5.61863318380558   -3.92735844738884
H         -11.55273646135504    4.71901282084380   -2.60855897093388
H         -12.31982993614426    5.83078076339230    2.37099988804798
H         -13.01281383703467    5.62201708886126   -1.20615244335453
H         -13.87887504341904    7.36988783653970    1.14055203189771
H         -14.49779780485876    4.24823533245195   -1.37017743000206
H         -19.09217965960598    5.68831610367440   -2.59153165044757
H         -18.98382915750872    8.96499623416353   -0.12446680953862
H         -20.25588827636441    6.39357825137344   -1.18568179142625
H         -21.50949898311863    9.12574469758458   -0.54939457571344
H         -24.20463834158117    8.90486987707825   -0.95816132432147
H         -25.92045992389980    7.14315560464787   -1.74012206994744
H         -26.99283629050673    4.77649797962765   -2.57408753213485
H         -27.18074532112102    2.30084900404379   -3.27453481212941
H         -25.68318666786614    0.20711485495980   -3.70569824031857
H         -21.37425647681614   -2.69732241502802   -3.92177413541682
H         -19.15491331634611   -0.54755098378779   -2.56636179074631
