102
 SCF done       -181.020107242527          0.000331527649
C          -1.44532200682828    1.01878910260238   -2.81195053378868
C          -1.52983523474829   -0.35155675939110   -2.77392550670948
C          -0.49678247961035   -1.21915120386751   -3.18431603377078
N           0.30134227675232   -1.98089096957239   -3.50273329468715
C          -2.63378912207482   -1.09838072161088   -2.31569076432336
N          -3.48607211068013   -1.77973321173154   -1.95367058095420
C          -0.27594443996176    1.77313344297589   -3.25600418836154
C          -0.54652804055046    3.15550272991110   -3.11047503026612
C           0.36359714184838    4.13008543104861   -3.43685461712859
C           1.60628442625055    3.72104122564810   -3.93275488448981
C           1.86860139883223    2.33858280336118   -4.07713337888218
C           0.94594093492301    1.35305173599545   -3.74654464098890
S           3.46314563002920    2.05304652375691   -4.70644526300200
C           3.75157886608668    3.77152121020131   -4.76467267075505
C           2.70924375889748    4.52232363115103   -4.33640653942772
Br          5.40147097518746    4.41271651621392   -5.38529096519998
C          -1.90909280564165    3.32632636659222   -2.57137992107609
O          -2.45683776692897    4.38827173252877   -2.33288918728474
C          -2.45234651668818    1.97610920221217   -2.40226481748537
C          -3.71027919077395    1.65710999282293   -1.94874460307863
C          -4.74627681405439    2.46744886092633   -1.47520631030033
S          -4.70136209891490    4.20544672367117   -1.31259388005330
C          -6.28903700175903    4.21982089137275   -0.62592394315838
C          -6.84626224969790    2.94354963959676   -0.55778986732278
C          -5.98164609755332    1.95921336794747   -1.03251363669655
C          -6.36055178706491    0.51329633502477   -1.10243373959158
C          -7.65491105278452    0.23067637407542   -0.34460657551012
C          -8.71103355212665    1.28512696097070   -0.67010482984370
N         -10.00238546402770    0.85824795050840   -0.16728514330600
C          -8.23741647969771    2.63565628013876   -0.10217100484506
C          -6.83573231897917    5.48632820715112   -0.25142371672119
C          -7.78139131258548    5.70097327817277    0.68366664501950
C          -8.32664168133915    6.98567253220677    1.04664930503677
C          -8.58857373188854    8.02179541402822    0.23798392715990
C          -8.41572069500078    8.02271717132929   -1.24577166342707
C          -9.20627035847790    9.27959484889747    0.79640086810513
N         -10.60980312520251    9.36176358142805    0.43010549602079
C         -11.46784137114173    8.35112883706510    0.71617134764624
C         -12.81285899925225    8.44654803727292    0.70747764068554
C         -13.67696838890476    7.34843446457452    0.97214375336598
S         -13.11364875907871    5.74073861499954    1.31287032927747
C         -14.72141792282808    5.16474254042037    1.54465456170539
C         -15.64721861788323    6.13944859820330    1.37453789366014
C         -15.06044249086120    7.38630966896570    1.04605500835367
O         -15.70991137294812    8.56048842726105    0.78088729897173
C         -16.92554059324506    8.79114819976700    1.24754558710405
C         -17.59007715586596    9.92653431072696    0.90869455984344
C         -18.88706956071588   10.27707806958762    1.32980041865740
C         -19.68784197298926    9.80124035656757    2.33608287332991
C         -21.14474303347559   10.07995315059527    2.23611684742954
O         -21.68578877093826   10.83764283208080    1.46029676672773
C         -21.78695064665235    9.20924096188170    3.23929577155318
C         -23.11422943739523    9.00337359818619    3.47732689431121
C         -23.50004075691374    8.08594555325658    4.48088183136511
C         -22.49405575233495    7.39342893081911    5.21451875312721
C         -22.88400194931257    6.47403388601017    6.20754741535948
C         -24.21412580050432    6.26962394168961    6.44795822933504
C         -25.21820747508725    6.94210159549388    5.73907936486719
C         -24.85690768886979    7.83673774140334    4.77018272054659
F         -24.58831076796987    5.39149222561336    7.39790333226639
C         -21.12485165289558    7.63382387033538    4.94949264486134
C         -20.77630334165024    8.53551661413096    3.98124776450827
C         -19.46889047030513    9.00432703437679    3.51660417626140
C         -18.30739930274451    8.87985349007497    4.24314190770925
C         -17.09926097221962    9.52434242788492    3.92556602600303
N         -16.08823314659443   10.02887588843830    3.71621033509297
C         -18.19630118322413    8.13794226106058    5.43496479624723
N         -18.03232636669514    7.52928146375138    6.39538813220472
H           0.12600673267697    5.17488814055963   -3.31212659177589
H           1.19617802136832    0.31366949482790   -3.87647309055496
H           2.71585388883007    5.59653413185382   -4.30538036551890
H          -3.95479626108239    0.60372954991135   -1.94169405827456
H          -5.56164956241235   -0.11619013476931   -0.70403895332055
H          -6.48919799772337    0.23973518200882   -2.15485196998168
H          -7.46470294596297    0.23813127327398    0.73109178632494
H          -8.03372812811399   -0.75498358939117   -0.61263677555882
H          -8.80640527714728    1.37158441804683   -1.75942048994806
H          -9.96862560713948    0.73604607520155    0.83959635950543
H         -10.71620841328846    1.54767909214884   -0.37503001591703
H          -8.26364014721058    2.57712901815084    0.99229443717598
H          -8.91409952433400    3.43820613350426   -0.41007823769216
H          -6.36342142489428    6.33552275226220   -0.72551115533586
H          -8.13807878580429    4.87396360003192    1.28076616617645
H          -8.59044009516123    7.07886523520481    2.09430768257850
H          -8.39995271776650    7.01113186915560   -1.64276428271453
H          -7.48262847443594    8.51469094584283   -1.52152853507691
H          -9.23251661542175    8.57582466774866   -1.70674094803679
H          -8.70391998376114   10.15111037524910    0.36799445835259
H          -9.08126130254441    9.31009735034147    1.88815204352764
H         -11.00971679146623   10.28752136852483    0.38719758448813
H         -10.99654566656796    7.39753836006293    0.91314856892944
H         -13.30238551087842    9.39048796807140    0.51623361260939
H         -14.88122633843385    4.13424046746935    1.78762878703283
H         -16.70505143088875    5.96418637254378    1.45536822308777
H         -17.39102346485834    8.02421210464733    1.85637694545055
H         -17.10363146878484   10.59161392445170    0.20957604786698
H         -19.38646788176570   11.01657080599691    0.70956339395587
H         -23.86226645269545    9.53365290128177    2.90727493856904
H         -22.13799033418466    5.94121060605511    6.77634894623466
H         -26.25154275312319    6.74008977143476    5.97254775886107
H         -25.61212374802767    8.36745273513119    4.21009065323486
H         -20.38754768864772    7.08902224249856    5.51743758445093
