118
 SCF done       -215.438979657074          0.000959044941
C         -11.42041743564483    0.13937095396224    4.39147867655306
C         -10.88678892545761   -0.64772956062315    5.37723690664738
C         -11.51980748905195   -1.79407323822306    5.90222566227146
N         -11.98592292446931   -2.73630684747243    6.36296714801575
C          -9.65500992547208   -0.41632896017246    6.02632770156250
N          -8.67801736261963   -0.29167765587362    6.61667085904491
C         -12.72575930414106   -0.04393008476132    3.77178402642654
C         -12.96729924787894    1.04052752166728    2.89463141243271
C         -14.11915006164723    1.15484234408091    2.15448005247892
C         -15.08305883767633    0.15105846657685    2.28958598696079
C         -14.83453588895259   -0.92955454649669    3.16990354914439
C         -13.66846775166848   -1.04599534400085    3.91560721126659
S         -16.15477968107590   -2.05945548020099    3.18198444606085
C         -17.00970199699646   -1.07914282010457    2.02130042623058
C         -16.34398176597663    0.03788976940353    1.64293083289832
Br        -18.70001095986143   -1.62268906114019    1.41705632052398
C         -11.81873967337074    1.96744965165731    2.91752427555747
O         -11.70845925217930    2.97440949268011    2.25343991550691
C         -10.82797734823352    1.34884924442828    3.83942307536992
C          -9.52632168947289    1.72208135983369    3.96899646028139
C          -8.93152196204371    2.95512536011424    3.53060208963453
C          -9.63109771589379    4.17076581499128    3.58687282533475
C          -9.02363776284391    5.31729549957308    3.13980206577597
C          -7.72789618134139    5.27058683591407    2.59086385160138
C          -7.00837900844374    4.08136251462612    2.57833577695204
C          -7.60401484911776    2.94129406800271    3.07294168566814
C          -7.39713049397356    6.58169176916851    2.07928584405544
C          -8.48938732384042    7.43675816217378    2.31144500752462
C          -9.57078373558275    6.72393724949993    3.09354911462276
C         -10.94034546381035    6.80154743785546    2.40409986885770
C         -10.92545786912341    6.19420896969998    1.00610424333450
C          -9.60522589100039    7.36822544262608    4.50149082630703
C         -10.43855489985506    6.63331422379346    5.54292956267912
C          -8.47053349734726    8.73620803900434    1.87122307014059
C          -7.35186345542325    9.21621632249929    1.17277210000771
C          -6.26093289674870    8.35809377621431    0.97112300473551
C          -6.27221886334276    7.05162483333396    1.41526955703403
C          -7.29430093717825   10.55124005362394    0.62348835688898
C          -8.27955029605837   11.46162453070978    0.67985008829172
N          -8.20622472625486   12.69145612188881    0.07313210436931
C          -9.18062725389108   13.62060880543149    0.08673595329236
S         -10.59377339832702   13.41036541516513    1.06973456590802
C         -11.22104212194360   14.91879537928393    0.47126524907139
N         -12.46399553806482   15.32751753053120    0.95335171612545
O         -12.91862212634991   16.37984895354218    0.54060828651989
O         -13.00637205821166   14.58720777278407    1.76023338903989
C         -10.39602230728300   15.53227543379001   -0.42899769725077
C          -9.20991355080075   14.80965179991949   -0.67421341568611
C          -8.17919029023117   15.18531426498532   -1.58504069801961
C          -8.28820952375991   16.17780864204174   -2.51108876865934
C          -7.30578138969845   16.56695226844452   -3.44265153164225
C          -5.98894602056996   16.19035231986880   -3.55008076850782
C          -5.10767602679614   16.64485280633358   -4.56411863670890
C          -3.83018753598431   16.18760697762456   -4.45716180974031
C          -3.61489904463568   15.34907376735818   -3.34126786367633
S          -5.10372856425631   15.13646953095178   -2.45467051346282
C          -2.42371131254805   14.77562048534915   -2.93421350343072
C          -1.16833071307907   14.86775571554413   -3.57035667108121
C          -0.16352240779581   14.23978188261780   -2.89533391838625
C          -0.57074128903126   13.62628223963693   -1.68950407652621
S          -2.28940967662379   13.83823185885297   -1.45961296391198
C           0.25251722228067   12.97118857361835   -0.79479689328479
C          -0.17514662240644   12.44055950347505    0.41675283293914
C           0.59290992981802   11.82049757336843    1.37903648759091
C           1.94680668976660   11.33828110439569    1.35682435509959
C           2.64130712406447   10.85661911839740    0.27120216561453
C           3.96227468696766   10.37326570511116    0.33524545578955
N           5.04537980878929    9.99047203587425    0.32355752076308
C           2.08371526881516   10.67963119864068   -1.01019876647909
N           1.66639928548893   10.47033973093068   -2.05981808717931
C           2.39667944927292   11.24442203694387    2.74571059964261
C           1.28012518040017   11.44188832581126    3.59610069830420
C           0.09121927390354   11.74134534224852    2.76798836328872
O          -1.04604032604640   11.92910905188060    3.14610418434906
C           1.37798624625289   11.38661736132419    4.96426502374453
C           2.64002538231300   11.14485991831887    5.51998654690312
C           3.74974586552012   10.96597674158610    4.66221928670886
C           3.64844198637001   11.00535774031334    3.27588822036152
S           5.21564816011424   10.70465253856828    5.55802440802354
C           4.32871092998445   10.83530418865847    7.05356616044676
C           3.00375400727616   11.06162607244151    6.89252229902959
Br          5.23764466533648   10.66450377673601    8.68609992876146
H         -14.27107389764634    1.99367818335671    1.49348400385588
H         -13.52338812340374   -1.89154372016837    4.56671038145530
H         -16.72403611262693    0.75243579908056    0.93601972605280
H          -8.83738284259629    1.01235639298999    4.41266073702201
H         -10.62831534729884    4.19296493351980    3.99226447409474
H          -6.00379783704748    4.04905447605110    2.18453408027413
H          -7.06474270053445    2.00509194943005    3.06579938782322
H         -11.24343553727381    7.84958085340300    2.34891643662533
H         -11.67729627630020    6.27009247087161    3.00593328729848
H         -10.14111324616870    6.63955435319046    0.39690198575726
H         -11.88152318749159    6.36594221587895    0.51703371057156
H         -10.76089976500084    5.12144783152829    1.06194329485064
H          -9.98654013869646    8.38564179783195    4.39007829147505
H          -8.57656114129101    7.43949257739385    4.86493198861728
H         -11.46694443231252    6.50998724568087    5.21451873582720
H         -10.44729296908390    7.20820800192093    6.46642975431057
H         -10.01635030316673    5.65545884525136    5.75870881507811
H          -9.31731282829704    9.37854035598114    2.05352514371493
H          -5.39437790791005    8.73236801353824    0.44542149788298
H          -5.42402739056076    6.40710287535893    1.24044151138420
H          -6.38010688196102   10.80746880406405    0.10190865578814
H          -9.21222574349252   11.27824452321225    1.19029456506830
H          -7.36768772480938   12.89585640982187   -0.45818848697140
H         -10.64748501207434   16.47557381009099   -0.87687856845966
H          -7.26729292990283   14.60801516179312   -1.55185547251259
H          -9.22630230925780   16.70890226979255   -2.58595588631886
H          -7.62755593431916   17.28278639874218   -4.18917301796453
H          -5.45092376528649   17.30278826907543   -5.34291899239329
H          -3.03838238128655   16.44260741373907   -5.13749256225674
H          -1.03590725722496   15.39200884153632   -4.49951014320681
H           0.85949938478472   14.19905475841829   -3.22355528379828
H           1.29907971980604   12.93022126817190   -1.05853806446586
H          -1.20787134199892   12.61780400195889    0.70278249277321
H           0.51098566890323   11.53135163597011    5.58950867119615
H           4.52338362438257   10.86796228479819    2.66233328816894
H           2.31003814942225   11.16831497862103    7.70641845908263
