119
 SCF done       -215.385441980086          0.000731947136
C           0.94263302387551    1.19431441649787    1.57501043941391
C           0.79273649269517    0.61226771617461    2.80671167533119
C           1.75827231110402   -0.22131399839511    3.40818815834035
N           2.51005177984660   -0.90034694797516    3.94824058381092
C          -0.35038446606608    0.72894224640010    3.62591329456398
N          -1.24901145861750    0.75455077055285    4.34057975141139
C           2.07303444906171    1.00082374972297    0.67730034140746
C           1.78356960331921    1.63337112301747   -0.55525531699911
C           2.65802977356864    1.62815546963716   -1.61454364523744
C           3.87837207587057    0.96529514208166   -1.44942885396538
C           4.16122455279773    0.33874331747515   -0.21219264085851
C           3.27682390971995    0.34452048466746    0.85887738316286
S           5.72703252995177   -0.41542181849837   -0.22133888891079
C           5.97562179174165    0.11275394130960   -1.86446748805081
C           4.94157629066768    0.81723286625126   -2.38188954911431
Br          7.57717737557072   -0.31580974068213   -2.74158547808194
C           0.45046715430481    2.26912537156049   -0.49053445312899
O          -0.07569257631530    2.89955340326796   -1.38063369864471
C          -0.03084938630988    2.03461225554577    0.89605729252631
C          -1.06487300677089    2.67518822568640    1.50846974432579
C          -2.11266167404807    3.45408591393988    0.91489088475039
C          -2.64883339219410    4.51821600533742    1.66588016668035
C          -3.64523119234042    5.29019943273440    1.12984547368808
C          -4.16418297473059    4.99845577529368   -0.14664019347656
C          -3.67613767950217    3.92067041128643   -0.87519984414779
C          -2.65375392329260    3.16238061037664   -0.34649795304387
C          -5.21480379741456    5.94311927977576   -0.43956702920595
C          -5.34472730710567    6.82676622718992    0.64978408639855
C          -4.31410084020393    6.51727449746446    1.71177083371457
C          -4.95389184351097    6.23700180865559    3.07969945730696
C          -5.92827309598190    5.06540732697516    3.03629016592881
C          -3.23227866074101    7.62037130816018    1.80294024134532
C          -3.72898624725048    9.01066071262552    2.17706827172036
C          -6.32712717343015    7.78479401634407    0.65337130785239
C          -7.17876701163957    7.91775752538272   -0.45724851249732
C          -7.02724877317224    7.03191099847398   -1.53694800391892
C          -6.06195199828105    6.04874113965994   -1.53622129875975
C          -8.19875589460855    8.93032791395989   -0.53194287464580
C          -8.31820021235620    9.97859487460742    0.31424141868546
C          -9.31221505349132   10.99765003794700    0.25432948862747
C          -9.25573005575891   12.06573124110700    1.17195926162559
C         -10.21116526056184   13.15601126820142    1.15509838380233
N          -9.94588403375963   14.26180564545801    1.82589801635457
C          -8.88118972900267   14.33200645025051    2.60873366136373
C          -8.14509314394376   13.13290660612371    2.87504165621623
N          -8.32090734724775   12.06293108565407    2.13729929404223
C          -7.31642974606723   13.10838085696897    4.01315567900900
N          -6.73620058410375   13.18239365056878    5.00304146151582
C          -8.50451934345886   15.56332420724351    3.16248667644372
N          -8.12745079389849   16.55303985551238    3.61006126623135
C         -11.40332289764794   13.10256127342084    0.37535565312570
C         -11.41602512719568   12.05889660938669   -0.59786154482953
C         -10.39147185538838   11.04366296979359   -0.66809331972755
N         -10.63097317617811   10.18109880622514   -1.65257540165114
S         -11.99429464516374   10.59586337239691   -2.40936802386594
N         -12.35460662324596   11.89174017280440   -1.51943185596844
C         -12.50421484852186   13.94663678096675    0.50743163404048
C         -12.85972494235960   14.79751432042142    1.54657607959928
C         -14.13357929552889   15.39275831212662    1.66238179783198
C         -14.38436208472628   15.97274390597500    2.87876081990139
C         -13.30704179057864   15.86988460144931    3.76950690942381
S         -11.93404657750574   15.11634600754834    2.99017087053054
C         -13.23865536055782   16.22448177085267    5.11464185507365
C         -14.19624339924592   16.87769715502168    5.90986086204431
C         -13.83878167945710   16.98383538590481    7.22579019004481
C         -12.57909652904628   16.42687180791615    7.53446397001500
S         -11.85290278526454   15.77837500570928    6.07094749382387
C         -12.05764708396809   16.25792307979202    8.80140949147781
C         -10.83185362505958   15.66931846083879    9.14788570216338
S         -10.75858120593258   14.71037111876793   10.62297994824606
C          -9.25524580525027   14.02473921845881   10.16461923399802
C          -8.77719695157378   14.53249074812844    8.99209513160820
C          -9.63822275361858   15.52806970764832    8.42844358228741
N          -9.24442676069858   16.30020802148287    7.37275415087666
C          -8.17131176453417   15.75686382808242    6.57258677594976
C          -7.06801956239546   15.22405775555086    7.48668092199339
N          -7.59852805703484   14.17385202635700    8.33436498744086
C          -7.00937915335153   12.93169414029633    8.53195277641900
O          -7.29631860230229   12.23645831389004    9.46932126209717
O          -6.10286518180315   12.56687859021213    7.63218864542741
C          -9.72128601323164   17.58343756107033    7.18707552978562
C          -9.56844479205898   18.33008429957982    6.09827335210952
H           2.40755804097051    2.11996719244774   -2.54143350530978
H           3.54052746086912   -0.14114140952677    1.78346463021713
H           4.92723554804593    1.21781781683704   -3.37904623989381
H          -1.09030094056472    2.64453356729124    2.59238032128380
H          -2.24749680804825    4.72700311656570    2.64728778394700
H          -4.09063045303894    3.67747302539408   -1.84156529363523
H          -2.28756882342131    2.30945495914090   -0.89282126285567
H          -5.48527515826965    7.12823640186712    3.41510818500023
H          -4.16343342994998    6.02580942919693    3.80269864362282
H          -6.72935087506922    5.25908234941805    2.32593432573888
H          -6.36897900420069    4.90975289285917    4.01811109018606
H          -5.42027366326422    4.15059558537381    2.73913249982600
H          -2.72967898593672    7.67778815225460    0.83350501511040
H          -2.49224063240509    7.29690988846372    2.53844760931453
H          -4.38495422816540    9.40874336764366    1.40772918657833
H          -2.87748677027768    9.68117285761761    2.27293446738213
H          -4.25744832342169    9.00304126043139    3.12654572644855
H          -6.46788818249400    8.42042486892114    1.51229865536397
H          -7.69006797474897    7.13240558723002   -2.38436331908223
H          -5.96798092477918    5.36920804766520   -2.37004607874826
H          -8.89631349986173    8.85083046744055   -1.35380087124459
H          -7.61258974251512   10.11492087052373    1.12187418948026
H         -13.25787970039026   13.81973020988906   -0.26095774706511
H         -14.84963219264291   15.34092224027233    0.86099811190722
H         -15.31903878762840   16.43248897061731    3.14676925339529
H         -15.12090798082096   17.24447337859323    5.50236619319237
H         -14.44952485745013   17.44125062008538    7.98408932757613
H         -12.72990543783182   16.47179550825548    9.62355297861407
H          -8.79750285519172   13.27714241998451   10.77875453307418
H          -8.55610427126220   14.94087186534275    5.95166486818312
H          -7.77278137395780   16.53220037601194    5.92201535094914
H          -6.70367508969154   16.03987497533309    8.12481455854939
H          -6.23421229876891   14.85901609342250    6.88964070551439
H          -6.24821297631197   12.90647530452701    6.72222791189276
H         -10.25145844010696   17.96533583470386    8.05032376662155
H          -9.09776603065863   17.97994526741934    5.19771620945605
H          -9.94895284304909   19.33448683499147    6.08548864401462
