82
 SCF done       -137.071925165194          0.000506684171
C          -2.45110925101098   -0.84477958600249    2.68621064639515
C          -2.77573775100108   -2.16224982523940    2.43721606269117
C          -1.95731070347776   -3.25747642767159    2.76823087337097
N          -1.34814715539401   -4.20356591364974    3.00619566439041
C          -3.95582431797469   -2.62663400759269    1.82637383891021
N          -4.87877623839454   -3.11421042543193    1.34303867963246
C          -1.21571357482691   -0.39928762068844    3.33178581765900
C          -1.23836220893770    1.01288260981750    3.42333997490379
C          -0.21754146543852    1.73495590374759    3.98753185269435
C           0.88429047409325    1.02890768883556    4.48584723215315
C           0.89891230801862   -0.38001872707530    4.38746064875975
C          -0.13697568025817   -1.11153619089305    3.81693753314241
S           2.35371313592871   -1.05327666300762    5.06209097360692
C           2.91290885565891    0.54924340381790    5.46079793627698
C           2.05766419619970    1.53727191123568    5.10914329098697
Br          4.57554282732897    0.76575199170814    6.30476646726876
C          -2.49852816785185    1.51577569731289    2.82798021265964
O          -2.83340466305279    2.68315428289972    2.74366305183869
C          -3.22810553276487    0.32148941733905    2.37901066648672
C          -4.46967435154330    0.34124044515486    1.76214502449193
C          -5.20871400738164    1.47287720144777    1.46223982510444
C          -6.45289607159887    1.39893178124806    0.84918931776315
C          -7.29948374355053    2.46267073940596    0.48305970051943
C          -8.47274643628644    2.06791272671258   -0.10643535222153
C          -8.59863098591250    0.67513523176381   -0.22638741112792
S          -7.18788312739633   -0.12698518457130    0.42383311456649
C          -9.63682880239605   -0.08524296534176   -0.75362698863814
C         -10.85443316681272    0.32228416685620   -1.32849020682211
C         -11.64117789446288   -0.72038433800828   -1.73459373063374
C         -11.08381715283587   -1.99628243869121   -1.49807177758929
S          -9.51401541684296   -1.82336371613638   -0.74396541398898
C         -11.65929987219003   -3.21628667586736   -1.79276414879016
C         -11.11412252028629   -4.47633814235727   -1.54492022716883
S          -9.55357350985935   -4.69578093843533   -0.80051050184631
C          -9.69310998035521   -6.43118261607494   -0.86340750452300
C         -10.92084601015232   -6.80951847875595   -1.42490708303574
C         -11.69805999478532   -5.72648527752414   -1.81933861148215
C         -13.03789186902778   -5.88203664916297   -2.46804897063121
C         -13.23185827048880   -7.30731568178246   -2.97681815315249
C         -12.87790776267520   -8.31222945744987   -1.87139397178985
N         -13.20731884069044   -9.69266972245251   -2.17845540527353
C         -11.37842850381486   -8.22516516496142   -1.57407777074705
C          -8.58875782920626   -7.15076642741816   -0.36461368397321
C          -8.34300702382897   -8.49287852633664   -0.38522396508866
C          -7.15911898067727   -9.03072994915919    0.16314415930268
C          -6.86170237402958  -10.36122432589936    0.16729117436952
C          -5.68867894464176  -10.95531779106963    0.70025761922974
C          -4.64988843859882  -10.30098681656160    1.28666829932446
C          -3.49970206388013  -10.95405419737797    1.79914571986874
C          -2.46508465611624  -10.29892022758162    2.37596177064496
C          -1.29926631660786  -10.94783222945595    2.89636374659166
C          -0.28588899806430  -10.29261698704033    3.46694580168513
H          -0.26422463213618    2.81134611208913    4.04411441109858
H          -0.07731665056765   -2.18582052888660    3.76708072176848
H           2.24339303782746    2.58189108767025    5.28072924651825
H          -4.90769759616856   -0.61089214039778    1.48650185176849
H          -4.81478501035836    2.44783081554032    1.70864975863055
H          -7.02412687562939    3.48680254881451    0.66242719082903
H          -9.23602697139175    2.74415815946628   -0.44854276663550
H         -11.12184894596894    1.35872592735454   -1.42972450898305
H         -12.60685166370939   -0.60560425224015   -2.19530369969048
H         -12.63761986768374   -3.18762683289153   -2.25430869426825
H         -13.13745335904715   -5.17499895430634   -3.29516515643418
H         -13.81832870251222   -5.64480500527349   -1.73697320000392
H         -12.58546143530021   -7.48252749728234   -3.84100283365672
H         -14.26812461291866   -7.44705959685591   -3.29454253691262
H         -13.43573429690169   -8.04661200981875   -0.96510282754275
H         -12.75504851460215   -9.97998701596424   -3.04065961345831
H         -14.20741949553913   -9.80365792439895   -2.30201897459552
H         -10.82871166621850   -8.70237270541849   -2.39263770499047
H         -11.16793443708503   -8.78610012416867   -0.66239312370460
H          -7.82239530931684   -6.52202892120472    0.07496614252643
H          -9.04028449065337   -9.18263151352702   -0.83461824624366
H          -6.46541131677316   -8.32606272730243    0.59963919086253
H          -7.58223336110744  -11.03967646211241   -0.27382086377202
H          -5.62510287635432  -12.03420969894750    0.62449627484815
H          -4.67226250980354   -9.22433298876336    1.37911445406310
H          -3.46295707003813  -12.03370275298881    1.71561405183100
H          -2.49901773701142   -9.22022995715866    2.45923603964114
H          -1.26604650808751  -12.02667719897673    2.80843190929255
H          -0.29600500453653   -9.21978972696281    3.56513509887007
H           0.57990670975844  -10.80379300118360    3.85064258949765
