101
 SCF done       -182.073845361404          0.000414576040
C          -7.39666781294193   -2.01546184307262    1.20370055098687
C          -7.32694413457828   -1.64910072247516    2.52239590206744
C          -7.22294269104058   -2.56233837140223    3.59231197394958
N          -7.14476866157812   -3.25719661078098    4.50269585064454
C          -7.32252922462477   -0.32018149143462    2.99567430657134
N          -7.30405314525514    0.73172178116380    3.45655596551248
C          -7.32987160957308   -3.37900609061932    0.69556907999150
C          -7.30768517750933   -3.33654776018002   -0.71978732472394
C          -7.24460269524542   -4.46896248807239   -1.49484268020209
C          -7.20200071425908   -5.70478662048965   -0.84162221251042
C          -7.22828082823626   -5.73844643578169    0.57346808943275
C          -7.29145215979362   -4.59327181914132    1.35685437281754
S          -7.17189364844279   -7.36793658694739    1.17460189507216
C          -7.11366698134788   -7.97292411940090   -0.45978815158827
C          -7.13478264325900   -7.00674310551542   -1.40850008579332
Br         -7.02997815927618   -9.82235585929042   -0.75874798110348
C          -7.35716276093833   -1.93266096693168   -1.17594794587749
O          -7.33349296527556   -1.55391896454280   -2.32624763905555
C          -7.48797626874563   -1.12038248951941    0.06169582062971
C          -7.85787578391653    0.18801514710061    0.11077186474609
C          -7.87209989423445    1.09123409804392   -1.00581183693309
C          -6.82876016382305    1.10344766958471   -1.89534455812801
S          -6.93481532048547    2.29946865112416   -3.10306882387261
C          -8.47842543197198    2.80076862133673   -2.47793079482464
C          -8.86752912266279    2.09045334502345   -1.33297257871844
C         -10.14938866632570    2.32526121095789   -0.77900833588559
C         -10.52907529482055    1.58726583057948    0.47398643335294
C          -9.95344834851138    2.28776512318724    1.70984635208564
C         -11.01306971749719    3.23749046099291   -1.37565514231879
C         -12.45084838626826    3.36619281475716   -0.94003450805248
C         -12.66417380885748    4.31225026484094    0.24519895923248
C         -10.57176064551406    4.01639712202889   -2.47294459335740
C         -11.25625076024189    5.03836201883345   -3.23098250260448
C         -10.51641852731419    5.46480421443727   -4.29198542979304
S          -8.97256783086550    4.72166141141099   -4.43535101490573
C          -9.30428515512788    3.76782188262118   -3.02445300718119
C         -12.54351819303036    5.63871916255392   -2.92970130738778
C         -13.45964440559624    5.93785262947278   -3.86290993364268
C         -14.75462037788342    6.52645151328123   -3.60866860256494
C         -15.66606707884865    6.65426620880622   -4.65292093366385
C         -16.93911575358025    7.17226301883650   -4.46526608853002
N         -17.74628514307392    7.25397213325378   -5.64576977010055
O         -17.49060595487634    6.47937513860773   -6.55016727407044
O         -18.62807643959976    8.09278711062773   -5.70989548836263
C         -17.39236124746217    7.55922910626509   -3.17553817571735
C         -16.43502109699689    7.46216528754374   -2.14452000138230
C         -15.17045893088083    6.97817941706509   -2.34487099894106
C         -18.73103047142210    7.97316597812719   -2.92617041606111
C         -19.39964693654609    8.08416856105543   -1.73606548625224
C         -20.76307302267707    8.47952086447835   -1.63517879077395
C         -21.27081924043708    8.47496423962879   -0.37347976691748
C         -20.34299679120358    8.07778090782341    0.61355523574289
S         -18.79775686921496    7.71364096752132   -0.12699213656674
C         -20.52654123842405    7.97241115401397    1.97685568925829
C         -21.68752367519359    8.22516792656231    2.73790693982487
C         -21.52437907667369    8.02996462451052    4.07638043691194
C         -20.22825950743670    7.60881210588514    4.46271441012447
S         -19.22078672443644    7.47300383263156    3.03077563859766
C         -19.83918788611249    7.37531747118743    5.75972314174060
C         -18.61663637510265    6.95991179201253    6.29705998443437
S         -18.50327498350708    6.90373690418893    8.05474386565451
C         -16.85285891909627    6.36635583667083    8.08314677291500
C         -16.40180480965616    6.22045595170321    6.77309082015793
C         -17.38072661978439    6.54996294845933    5.78625367633660
N         -16.78676170745251    6.33143692029187    4.58974700851526
N         -15.52575793881011    5.90139192344813    4.73674443533356
C         -15.26795233925563    5.82550467722953    6.01625592123399
C         -16.20349023845280    6.15696411409918    9.33559136739073
C         -14.93087297054221    5.78075865929578    9.49029231419953
H          -7.22824434591210   -4.40228591884709   -2.57138212591441
H          -7.31400077584737   -4.67123252925917    2.43095196592417
H          -7.10483930721790   -7.20194746527430   -2.46488194987038
H          -8.14005968604670    0.59474210171721    1.07007232868420
H          -5.95098657634015    0.48942117148403   -1.85041493897983
H         -10.15252746369408    0.56285282736882    0.41288792714564
H         -11.61013958806184    1.52562624804120    0.58377564911377
H          -8.88277544663375    2.45252741621049    1.61657825817043
H         -10.13488163648031    1.69385857645718    2.60296367647547
H         -10.41695495694445    3.26112081048505    1.84408965861726
H         -12.84744631307145    2.38175970745168   -0.68536548979578
H         -13.02924378960599    3.72103447226890   -1.79419691285550
H         -12.36653685081883    3.84400599723647    1.17827227607691
H         -13.71627995254526    4.57764712239410    0.32607290960265
H         -12.07996854820221    5.22256588870119    0.12744960519335
H         -10.78606987347285    6.23309859692995   -4.99019104435369
H         -12.72654129181638    5.87336234231705   -1.89327203566702
H         -13.26377968460132    5.67466711425002   -4.89427060607432
H         -15.38770285499951    6.34987232738039   -5.65186957135552
H         -16.70045736335441    7.81112742255555   -1.16042824150294
H         -14.48743980041124    6.95038841271420   -1.51059277632829
H         -19.33403669899052    8.20131922410537   -3.79385113883766
H         -21.32188350298301    8.75216500655418   -2.51274104147015
H         -22.28243855652460    8.74288539214314   -0.12637047891734
H         -22.60630864904051    8.54335228561900    2.27956247486346
H         -22.29994432523309    8.17613912635215    4.80749173844535
H         -20.60895945205527    7.55946136094272    6.50027333987687
H         -17.16351000631392    6.45590927407259    3.66516994642803
H         -14.30646752332245    5.49493086426467    6.35104302996294
H         -16.82313222335049    6.33196552448270   10.20567380790224
H         -14.28295223598014    5.60366709345641    8.65134452337900
H         -14.50740261604075    5.64425379506403   10.46905247882817
