96
 SCF done       -175.919672134458          0.000585802508
C          -8.26544188447557    5.40903651802521    3.63993190668519
C          -9.04915666364977    5.98095303046779    4.62100880370134
C          -9.38916206083055    7.34561022818190    4.66183064690090
N          -9.69687256891909    8.44925275080804    4.74797310208134
C          -9.63250160515602    5.27769755482601    5.69154192127726
N         -10.15031800814692    4.76693001170903    6.58176513539111
C          -7.71475128198201    6.10859995722863    2.48040869272145
C          -7.04711669675784    5.16218340691016    1.66586484729055
C          -6.41218424704538    5.50701926873403    0.49911874925898
C          -6.43896210785412    6.85322860802435    0.11538664293472
C          -7.10638325252151    7.79075543977865    0.93625505472189
C          -7.74940937896784    7.43993563955027    2.11942724896319
S          -7.00695909620033    9.39734223044997    0.28317857407812
C          -6.08239689681737    8.79536634269475   -1.06696651992938
C          -5.85980578755819    7.46024860549704   -1.03250275864498
Br         -5.49644619730369    9.98641339286767   -2.39287547407751
C          -7.13718483066619    3.82798340540024    2.29468054371260
O          -6.59053902517716    2.81419374701231    1.89931226792430
C          -7.91578486174052    4.02335688300440    3.53103820635105
C          -8.08741443276091    3.06255965739785    4.52702858187542
C          -8.01566614794675    1.69279540181524    4.38331302574437
C          -7.87260564580198    0.74764778291522    5.45449495902799
C          -7.93884410417139    0.93569296767834    6.83303663565366
C          -7.86794908365024   -0.16909606211893    7.65594557966664
C          -7.76366624635720   -1.45230576091337    7.11992834122815
C          -7.67288902758690   -1.65390098878567    5.75491096534531
C          -7.67694202420863   -0.55094499969148    4.91028426913322
C          -7.61813595520285   -0.44659025654664    3.46350944509229
C          -8.16268466440956    0.89712816242594    3.16901522574865
C          -8.96878870546256    1.22728931838065    2.15475289499171
C          -7.11026190001974   -1.32215116335851    2.56052483827922
C          -6.40985087926416   -2.57893331871197    2.77128284984001
C          -5.62091044390836   -3.00467254989513    3.83131271669316
C          -4.92295822008769   -4.19335177656135    3.71367087036260
C          -4.96626590242997   -4.93339749193348    2.53738069218350
C          -5.70986932235971   -4.50073414336628    1.45435539720298
C          -6.45552279413976   -3.33541081503778    1.57274773807286
C          -7.18550241803642   -2.58308510035783    0.56397294128321
C          -7.14028737190185   -1.19823510866521    1.08421068885940
C          -6.79811182834558   -0.10873719537993    0.39804588774097
C          -7.78666020906173   -3.04032923251967   -0.56577568530146
C          -7.96059308635365   -4.41888452740566   -0.98583957072035
C          -8.01411420269013   -5.59494166081382   -0.24788992372665
C          -8.28469459883569   -6.78311576153418   -0.89907726867991
C          -8.54564207374371   -6.81161053522662   -2.26885438511824
C          -8.55974267060459   -5.64925701045880   -3.00883909633728
C          -8.25349563624773   -4.44575409952626   -2.37638964196733
C          -8.33572131056399   -3.10156208680153   -2.86189056782987
C          -8.35210743649349   -2.24078779485948   -1.67450491766811
C          -8.96621265981117   -1.05505312531736   -1.60616028381610
C          -8.45487068806690   -2.62844661321344   -4.15186376893314
C          -8.10014129733006   -3.28130400064166   -5.33035947483183
C          -8.51068754172871   -2.91091014408333   -6.65142672001037
C          -9.46954949813263   -1.97361010041575   -6.98067221264766
C          -9.84906062175451   -1.66311461953142   -8.29922087739013
N         -10.19572272234173   -1.36460693769907   -9.35335133291762
C         -10.19901288576084   -1.21456792322562   -6.04746088599672
N         -10.83576736943938   -0.56990905596572   -5.33916791422719
C          -7.78862708399618   -3.75521599049619   -7.60214291832471
C          -6.92678795812026   -4.61181883468951   -6.87487285356153
C          -7.06417078197946   -4.32854352642486   -5.42915995549044
O          -6.39024418607482   -4.80077989288036   -4.53461410685533
C          -6.11015150306369   -5.53082339254690   -7.48391941807087
C          -6.15134329560135   -5.61527672546995   -8.88107077799024
C          -7.01505225323914   -4.75621481474448   -9.59815553824915
C          -7.83865846547647   -3.82073874814791   -8.97982438093794
S          -6.90660558254473   -5.02497878590330  -11.31135706974197
C          -5.71892716605247   -6.27312441265228  -11.04375305959809
C          -5.41770992762544   -6.47894261487109   -9.73982099166805
Br         -4.98983001751346   -7.18780093155268  -12.51068729744240
H          -5.90842106434088    4.76482691850088   -0.10008503604362
H          -8.23879180742936    8.19284912779307    2.71417598675703
H          -5.30853562982197    6.92433267349969   -1.78338147590120
H          -8.23866443066575    3.42901741218792    5.53492034200803
H          -8.08275910296605    1.92105545011931    7.24873584282541
H          -7.92833507020297   -0.04555394252423    8.72662782384454
H          -7.76449281912292   -2.30399082341209    7.78377254539170
H          -7.63738351229007   -2.65574590412222    5.35636732416512
H          -9.19992118659447    0.53878370076861    1.36309934333287
H          -9.44389104406832    2.19261576908002    2.11619991912115
H          -5.50460477025380   -2.39315165663491    4.71194250211466
H          -4.30465257773719   -4.53061902323343    4.53203707112329
H          -4.38084523509552   -5.83672548167608    2.45470675066999
H          -5.66622755301473   -5.03288432320685    0.51709972566932
H          -6.62009525121004    0.83298699653166    0.88844829278554
H          -6.65542215816867   -0.14486636293635   -0.66869183814978
H          -7.88687179892194   -5.58189758453915    0.82346754555294
H          -8.32477142013822   -7.70232286151173   -0.33365255548742
H          -8.77627739625867   -7.75324921994676   -2.74403263136322
H          -8.84456625728121   -5.66510020095432   -4.04899992999102
H          -9.05895632929754   -0.51235968256237   -0.68382805768842
H          -9.44641506167092   -0.62145411232840   -2.46710907520321
H          -8.81002961278485   -1.61046014247748   -4.25443610536969
H          -5.46149043060516   -6.16793299178205   -6.90336108479510
H          -8.47603879464825   -3.18484384002067   -9.57112603356280
H          -4.70745138511635   -7.20848957628641   -9.39582643138138
