87
 SCF done       -182.576655877435          0.000520776347
C           0.32790640729417    4.94507509149285    0.35447803179260
C           0.79670765502190    4.24661157066373    1.43966807851902
C           2.14934523051088    3.90507518309697    1.62626615059177
N           3.24190121773272    3.60710192280256    1.81696737132898
C          -0.01760878330303    3.82566419494274    2.50836031169639
N          -0.64703578961823    3.49032780846421    3.40820507178584
C           1.14398890967453    5.46597607115111   -0.74027646346045
C           0.29317225187203    6.09669649410235   -1.68541416226547
C           0.76050472691813    6.68723246941493   -2.83302720822173
C           2.14240130029583    6.67931693721979   -3.04833180451509
C           2.98911324249353    6.08557292095117   -2.08419611695083
C           2.51097558488794    5.46226227279661   -0.93529100246863
S           4.66263710813809    6.26029985394957   -2.51087809220415
C           4.20734447587575    7.11480453036440   -3.95997988396879
C           2.87026814678199    7.25292919046253   -4.12436071641255
Br          5.53148801218723    7.77358406485889   -5.10888401426211
C          -1.08733500353398    6.01550925505878   -1.20672592012044
O          -2.09220888691046    6.46158153860530   -1.75806572080708
C          -1.04296867179318    5.29320833269820    0.06701075231921
C          -2.19688326806948    5.01207241256550    0.76643972986967
N          -3.36745422999601    5.43443327886837    0.27573577613133
C          -4.61719057742497    5.23961849524499    0.74954679824123
S          -4.94272905448930    4.33420505391994    2.19323038659632
C          -6.64028478174810    4.59138436553841    1.93815370606059
N          -7.53204716280134    4.04697941725717    2.87625815138206
O          -8.71973179529300    4.23136947278614    2.69451188740640
O          -7.04133491935423    3.43046771050180    3.80355988607975
C          -6.93263222319827    5.32144601322007    0.82021271244616
C          -5.77897148733419    5.71838833656678    0.11128570588008
C          -5.73866015638025    6.50613115170824   -1.07576697616598
C          -6.79849417167333    6.89378308319932   -1.83454953889726
C          -6.64241833870733    7.68778409249602   -2.98888018577760
S          -5.08379429061365    8.30413286574706   -3.44000327516165
C          -5.68889689175761    9.10003044248698   -4.86274267932437
C          -7.08190152578087    8.88376803823535   -4.98225090702315
C          -7.61759966090605    8.09454866527533   -3.92130633981857
C          -8.99111344341670    7.79675719108375   -3.89792072608049
C          -9.78958291357404    8.27519958311429   -4.89961217881182
F         -11.10267227166555    8.00125701884408   -4.89339251094866
C          -9.25856505688688    9.05562739097420   -5.94726406494367
F         -10.08017494905620    9.50318600978668   -6.90939958873670
C          -7.92537486156301    9.36071148096709   -5.99607925192988
C          -4.83382008220987    9.82055622776596   -5.69862433768572
C          -3.49723146220355    9.98867890062926   -5.41194295689302
C          -2.55752250677174   10.65655202189324   -6.18580049320426
C          -1.23673352851540   10.78498172504013   -5.78800266867603
C          -0.15986070010024   11.37013671306830   -6.48263880442328
C           1.03680520217663   11.31275860340211   -5.81939558139843
C           0.95401356156721   10.69399777001317   -4.55859499463241
S          -0.68231953642385   10.17142108745368   -4.24194265914217
C           1.94613310405630   10.44313550239847   -3.62225458783257
C           3.34245008849795   10.59954680266914   -3.72151733281407
C           4.02465543218540   10.11986639886544   -2.64119457344679
C           3.19958970484229    9.57077062326104   -1.62822937955413
S           1.51482457390763    9.74788450346536   -2.07347610930260
C           3.60892076529169    8.92201568857619   -0.49105873345003
C           2.78028658919564    8.35625092726398    0.49120741670847
S           1.03120709139783    8.52473613747141    0.55818023682417
C           0.87081058076849    7.58507234563206    1.98986537222357
C           2.10022991428207    7.14974624780141    2.42652105080511
C           3.16173222179245    7.58200831866588    1.57729651321514
O           4.34818041226359    7.12610035150118    2.02028743398396
C           4.06218518311010    6.41468369240245    3.14533240383012
N           5.14983938666810    5.81115975389659    3.83290017774977
O           4.87849585425911    5.22766217425811    4.86114347442801
O           6.25410587306981    5.93527727388747    3.35500709715477
C           2.73033888092979    6.38769866039334    3.45196017066811
H           0.08558455662150    7.15672834299941   -3.53094455117476
H           3.19905367351222    5.00776526749970   -0.24259348390497
H           2.41548586994284    7.75065703274473   -4.96128277017297
H          -2.20473626886755    4.45722070876717    1.69559475405573
H          -3.25961058927670    5.95079119210319   -0.62229277631377
H          -7.94196226065952    5.56332946383166    0.54317926647770
H          -4.76159804520417    6.82680634511835   -1.41237706211090
H          -7.80189374369495    6.58726083099862   -1.58016728640587
H          -9.42531050294860    7.20228063665326   -3.11127401858680
H          -7.54649233306314    9.95914312421577   -6.80802997781660
H          -5.24889345467581   10.25923888029101   -6.59478734122900
H          -3.13550803908057    9.55240725304685   -4.48704666597877
H          -2.84638438997487   11.08568744469225   -7.13547414994646
H          -0.29055147213069   11.81111414581310   -7.45517139792491
H           1.96151685098175   11.70617332566038   -6.20187091754192
H           3.81047656863029   11.02428759162871   -4.59129737492553
H           5.09603084193279   10.12911433373182   -2.54606222762679
H           4.67194946826727    8.80577002292277   -0.32606518678985
H          -0.09517377160851    7.43111235297660    2.42427805140854
H           2.28433133387514    5.88764197911395    4.28658580225586
