85
 SCF done       -161.645714284224          0.000312448948
C          -6.77587570580161    5.33695409661529    1.89556835143868
C          -6.89191277123678    4.71864057962360    3.10861851240204
C          -6.87825289144674    5.40161096857366    4.34461767830701
N          -6.87643759940146    5.90694090313404    5.37483169344107
C          -7.11567738365923    3.33867544283972    3.29616306511052
N          -7.34138647979233    2.24179043719925    3.54723389244947
C          -6.66824148480096    6.77073125447131    1.67212861050147
C          -6.82658345131110    7.03302288545745    0.28839317334601
C          -6.78691650958927    8.30321526351651   -0.23381739302230
C          -6.56746817805140    9.36498317809522    0.64910794678513
C          -6.40412380268601    9.09339969752619    2.03002138125133
C          -6.45264063817431    7.81118457539629    2.55962003780675
S          -6.14431210600895   10.55040957655024    2.94057874632442
C          -6.25838772482860   11.49050118152165    1.47626965550640
C          -6.47830255086932   10.75398831989498    0.36116065658167
Br         -6.07605845761243   13.35438033503827    1.55770456908592
C          -7.05055971953553    5.76297268098058   -0.43287545398097
O          -7.44720469712014    5.64432459292258   -1.56516169720762
C          -6.79132185702002    4.69239599911396    0.58324467957226
C          -6.52144720764560    3.39849973928771    0.33030254083873
C          -6.32056557384686    2.83421140878071   -0.99935143227336
N          -6.65745595012350    1.55419872349241   -1.16004545439248
C          -6.39636353814667    1.00707989549454   -2.33818740701183
C          -5.79913905297540    1.71498527085288   -3.36095525900407
C          -5.51806688045114    3.06728155897252   -3.11423026562489
N          -5.76876523587200    3.60202579409449   -1.92050297140407
C          -5.01781648803164    3.92040266643078   -4.16445139531594
C          -5.10932578136493    5.26345656559974   -4.09904162273929
C          -4.82343256824404    6.15384392620407   -5.17311482232575
S          -4.35638687162887    7.79222973983500   -4.83864298423701
C          -4.17211913976883    8.10981017071108   -6.51659493741198
C          -4.45649642579049    7.04103303930190   -7.30754777202274
C          -4.40835625702098    7.10933336754451   -8.79806156577127
C          -4.84904920561943    5.89783297140726   -6.54315500720074
C          -5.34888780397986    4.64723123418172   -7.04407997521400
C          -4.98803328938837    4.00585850669072   -8.17899541428763
C          -5.47300034712284    2.72695905800696   -8.57410087781149
C          -6.14298815582236    1.83001496196869   -7.79254175689939
C          -6.56331079168560    0.57804211252471   -8.26899633972374
C          -7.14970530563304   -0.41936085243913   -7.53096127410736
C          -7.61426782246386   -1.65678491277756   -8.04082264694423
C          -8.16984369447421   -2.47695366669547   -7.10994424358321
C          -8.16483287430430   -1.95046849031700   -5.79616444404079
S          -7.43256278447178   -0.35888805766937   -5.79345434359714
C          -8.67634468747347   -2.56459212607543   -4.66993215533104
C          -9.39819342559375   -3.78292801596599   -4.64761151015707
C          -9.86949483805223   -4.12531220684922   -3.42191824969278
C          -9.52983397235840   -3.21216610884420   -2.38710101487101
S          -8.56378781599744   -1.90297084558176   -3.04771473847458
C          -9.97569513229500   -3.30921867963022   -1.09838468491635
C          -9.65510035909194   -2.48589330013126    0.00316118504824
S         -10.76598379585948   -2.42380983999737    1.36871278711597
C          -9.79913228945133   -1.33372926761739    2.27247320070633
C          -8.65560702018321   -1.02535104166124    1.57931300953990
C          -8.57983012146757   -1.67252195720448    0.30411745041261
O          -7.39360710913900   -1.41015652556542   -0.28915704990098
C          -6.73172391292791   -0.59500722862366    0.58009421752668
N          -5.41640630752454   -0.19956950582912    0.25610017226788
O          -4.89839771285360    0.62278556785486    0.99214529633734
O          -4.87455082014727   -0.71702754360669   -0.69848062020457
C          -7.43188684319703   -0.31648435530696    1.71982000514024
H          -6.91630320838667    8.47260562664211   -1.29133310610388
H          -6.31905987121687    7.65373150853292    3.61694263242613
H          -6.57425800924453   11.17096282275650   -0.62466018839861
H          -6.36426836587291    2.69296770247867    1.13587707140110
H          -6.66552152541440   -0.03432851177447   -2.44913237447269
H          -5.57358947917115    1.25371051622440   -4.30767374137259
H          -4.61506264772233    3.42165246046070   -5.03360161808646
H          -5.44545051001840    5.70071179747398   -3.16813247036831
H          -3.86292957714175    9.08734314908531   -6.83185416195018
H          -4.40301527560359    8.14673296878060   -9.12434061597152
H          -5.27103075679485    6.60530796693746   -9.22921632907946
H          -3.50425621611690    6.63187967256308   -9.17555108422667
H          -6.09082208733933    4.18310313875591   -6.40699428838923
H          -4.25564257509312    4.45205304350059   -8.83579002996016
H          -5.23248513482872    2.42124712784955   -9.58534949853588
H          -6.35509606211495    2.05667872050919   -6.75618986567399
H          -6.41484570827324    0.36888099833273   -9.32154712138026
H          -7.52772801806568   -1.89503699343441   -9.08638484016713
H          -8.57205155005208   -3.44894175952084   -7.33051269543807
H          -9.57067908705669   -4.35843945671264   -5.53885490732088
H         -10.45441189219813   -5.00415269950957   -3.21591552643423
H         -10.70027682582440   -4.08818447034889   -0.89860486420761
H         -10.11586971368299   -0.99923561989140    3.23808742097556
H          -7.11507668421741    0.29991657089717    2.53665846790209
