81
 SCF done       -173.907930629942          0.000926440490
C         -17.00935628851873    2.01925352462521   -6.55018041648309
C         -17.93464886813871    3.03095719063486   -6.55016061546353
C         -19.32951464715213    2.82775965090719   -6.60276688969940
N         -20.47197843357167    2.72539970660790   -6.63549278804373
C         -17.61876000173901    4.40425105789182   -6.51429568542464
N         -17.41582018191738    5.53487216432976   -6.49566035790309
C         -17.30031586161730    0.59701416328282   -6.66790392593337
C         -16.07647435573571   -0.11588964699923   -6.72388424508451
C         -16.01762791157364   -1.48314194151161   -6.84022460266842
C         -17.22677341805859   -2.18341036707134   -6.90886760877326
C         -18.44561736094249   -1.46432223354510   -6.84982741882322
C         -18.50388243281578   -0.08122682423560   -6.72992968519381
S         -19.81803571358434   -2.52506747464699   -6.94421729573809
C         -18.75243642045462   -3.90027672756273   -7.06212251161647
C         -17.43520977919707   -3.58336935444288   -7.03287186855141
Br        -19.47793395259643   -5.62224370398170   -7.20935468670680
C         -14.95314335504052    0.82909428667118   -6.63021898069101
O         -13.77060035423614    0.55370969055013   -6.56394521118014
C         -15.56599302510953    2.16939254804009   -6.51421097798603
C         -14.89504617454579    3.31674356852353   -6.19861273234018
N         -13.56760983525123    3.55536039590806   -6.31152163395369
C         -12.65282417574282    2.96066550248356   -7.14225425868840
S         -13.11887271424552    2.26488564150124   -8.65421076626646
C         -11.47351838984378    1.82636484536945   -8.94640175848633
N         -11.19002547167649    1.13935482615312  -10.13491297780232
O         -10.03778957611121    0.81621796604093  -10.34385233140094
O         -12.13392900168831    0.92106619898393  -10.87387712926088
C         -10.62137831389739    2.20314243105656   -7.94330965251389
C         -11.27908526303811    2.89416107296356   -6.90928150854544
C         -10.57579118638429    3.40842963045292   -5.75252235612262
C         -10.76685603939582    4.60823268921812   -5.17317345572940
C         -10.02704236075157    5.04964284976543   -4.03227432976507
O          -9.26190019421336    4.16633652916696   -3.33814557422467
C          -8.68709563501658    4.80308906987427   -2.33115921279202
C          -9.06160303220569    6.12658243876525   -2.31802189612481
N          -8.73435008674652    7.05554139019102   -1.30489353144201
O          -9.40251298135557    8.07347284707748   -1.23766206921113
O          -7.84171881505450    6.75185832851285   -0.53658873545626
C          -9.92922822194999    6.31059972328259   -3.44514830818855
N         -10.52600420058532    7.46915957297555   -3.86703247700494
C          -9.99834475512054    8.72927260115405   -3.79952071653461
C          -8.68544700580502    9.07279635064782   -3.70577929197247
C          -8.19032127484618   10.40405124968588   -3.58679627670915
C          -6.83967777016930   10.49559331317797   -3.51179045706836
C          -6.16827522996264    9.24864068250677   -3.57311993770862
S          -7.32704583889072    7.94838515479789   -3.74938670672760
C          -4.82042636551531    8.99080880031357   -3.48709954595045
C          -3.76000108615158    9.91725013557325   -3.33261416505608
C          -2.53356126296490    9.34024120037973   -3.25719994468182
C          -2.54523631007085    7.92095756303330   -3.34820885075224
S          -4.19327140667794    7.35188844953444   -3.54156906517561
C          -1.44837282300123    7.10755706902409   -3.29140079839124
C          -1.42171054124067    5.70262510231828   -3.36936391903401
S          -2.82625829074558    4.66779461048167   -3.56325100305833
C          -1.91286402606312    3.21261119717118   -3.55598164740596
C          -0.57226700718202    3.48207609093588   -3.41164882732120
C          -0.30895816164557    4.88151839236705   -3.30813640098512
O           1.01261815601063    5.11561698530812   -3.16775604953315
C           1.59417441931089    3.88542231547361   -3.17999257189762
N           3.00182908761472    3.82275624342540   -3.04836657918840
O           3.49646136351407    2.71097296952108   -3.05841181332408
O           3.61061679788701    4.86456007013072   -2.93694255572170
C           0.70200537696452    2.85717020273246   -3.32365388163133
H         -15.06958399243590   -1.99578881796715   -6.88305375758142
H         -19.45666923682277    0.41937642777384   -6.68472329762354
H         -16.64273440726546   -4.30657334345474   -7.09587185949510
H         -15.44503740695658    4.14736357280108   -5.77366607501650
H         -13.18047435083621    4.24580685486472   -5.68135933043334
H          -9.56597462412104    2.00128930750474   -7.96584641446398
H          -9.79087220142142    2.77321850539899   -5.36696290123853
H         -11.45297970902845    5.33541012852890   -5.58813424976805
H          -8.04636550597223    4.25869138613479   -1.66628937324549
H         -11.42939731781921    7.38135245997777   -4.30886261435714
H         -10.72766589449212    9.52488958831906   -3.85324183622580
H          -8.86321655609708   11.24111841633759   -3.54139612509692
H          -6.30021057022685   11.41889970566926   -3.40375759397033
H          -3.93715436541462   10.97619408388019   -3.27776803820275
H          -1.61089520907641    9.87913899474526   -3.13421612799160
H          -0.48067381090902    7.57659140645879   -3.17010619624292
H          -2.40683156336272    2.26904455390623   -3.65682485982703
H           0.94316470453806    1.81517677975366   -3.35852585702513
