98
 SCF done       -198.233802944324          0.000555325304
C          -5.04341449580432    2.04189045133595    6.93849181814138
C          -4.71069355867559    1.88825718466496    8.26302213127698
C          -3.65331893556955    1.07818323983187    8.72277182380345
N          -2.80386725391612    0.43986819920970    9.15892401377691
C          -5.38481655418696    2.48298116041634    9.34872433830732
N          -5.88679278993072    2.90880985377216   10.29057958059338
C          -4.40785174483176    1.34121298699322    5.82416142108463
C          -5.08940128845597    1.68610787678765    4.63208564151784
C          -4.74106723801491    1.17929462547252    3.40549562413341
C          -3.66611947700858    0.28386812455891    3.35174050396419
C          -2.98739759388844   -0.04970265142449    4.54576411698297
C          -3.34057271594253    0.46553712045201    5.78834621451742
S          -1.68661405417669   -1.16533585468163    4.25171023410239
C          -2.07217403379842   -1.17047813087199    2.55179798939891
C          -3.11784031089148   -0.37781877246791    2.21859272730778
Br         -1.05829850978756   -2.22321499040912    1.37502615258558
C          -6.16179684100542    2.64837579261519    4.95294136628295
O          -6.88181203702807    3.22014027641118    4.14749745552116
C          -6.12184913486081    2.83876964365442    6.40209169726882
C          -6.86780726559996    3.76204603145889    7.11833490791108
C          -8.05802853125608    4.40860665544466    6.79779385368836
C          -9.07351360751340    4.07244975396534    5.91517217260526
C         -10.28401717141743    4.80886498427923    5.80929894400160
C         -11.22035954389971    4.24147365228917    5.00059812089895
C         -10.79509690214610    3.01771630139463    4.43703985021956
S          -9.16191519238030    2.64723759349863    4.93327428152829
C         -11.49385693304662    2.18767693361460    3.57690339179659
C         -12.81803450305026    2.33211495388840    3.10817508629148
C         -13.21847855905524    1.32988752933411    2.27680594068521
C         -12.23335141486617    0.33994066626832    2.03601590225360
S         -10.77332070588957    0.74021295179668    2.92069814986957
C         -12.40819308798089   -0.76325752197731    1.23345232013831
C         -11.48487527107544   -1.77138391554360    0.92981176159689
C         -10.15619328055837   -1.93882797459571    1.30124689357469
C          -9.58425320153091   -3.08519630843370    0.77228969853823
Cl         -7.95400689503633   -3.52044229887156    1.07269484217139
C         -10.43801036533140   -3.85645201612938   -0.02390889736855
S         -11.99899548472704   -3.09017564832981   -0.09791033189289
C         -10.15819289579452   -5.06473508058111   -0.68730520472608
C         -11.01764089890893   -5.83958736550065   -1.47412911774316
Cl        -12.64701236375117   -5.40161384084994   -1.77235921389057
C         -10.45137996581837   -6.99238548214521   -1.99480869752024
C          -9.12000958319157   -7.15856458852804   -1.63174813405789
S          -8.59655476128752   -5.83070441984220   -0.62007065265817
C          -8.20023487963894   -8.16901627951408   -1.93646748285948
C          -8.39709902423989   -9.30197089925317   -2.69211092803030
C          -7.41108856137567  -10.28600271461939   -2.94890117863737
C          -7.84028242526320  -11.32755181534680   -3.71606786011691
C          -9.19142884823715  -11.22400252128158   -4.10984299756545
S          -9.89634360194089   -9.75831541634430   -3.47634480316629
C          -9.92738981198412  -12.11288647728190   -4.87726815707715
C          -9.49520339313343  -13.32835031149057   -5.44700980654358
C         -10.46987345407312  -13.98510326852040   -6.14056546717164
C         -11.71519779329000  -13.31845295911900   -6.15631387405050
S         -11.61143928108723  -11.82849544571406   -5.25141290381946
C         -12.87707123572423  -13.76001081452978   -6.76013642492286
C         -14.06353772648374  -13.03504559190383   -6.76795992256877
C         -15.28789455608383  -13.41719063366459   -7.27237398933505
C         -15.80542586704679  -14.69683604960196   -7.67032956471695
C         -15.40811824001874  -15.93195696450706   -7.21047522399141
C         -15.99084740753513  -17.14685675300864   -7.61909741774913
N         -16.41374150059689  -18.16915911061795   -7.92869464404570
C         -14.45432096316734  -16.13285486821079   -6.19380620813243
N         -13.72101916316650  -16.36123429955402   -5.33951945863540
C         -16.99498940088216  -14.45229547720647   -8.48666348796639
C         -17.31165138219264  -13.07236829386030   -8.42208677817041
C         -16.28992410514251  -12.38074032189323   -7.60694337871517
O         -16.25328515170673  -11.20637599637140   -7.30818618006864
C         -18.40261479610609  -12.53486349203654   -9.05850001111252
C         -19.21481022612654  -13.39781346887746   -9.80339106744680
C         -18.88278636331737  -14.77058724648690   -9.87190495595694
C         -17.78223472166491  -15.31683641315200   -9.22061580358389
S         -20.01271794995282  -15.65349951274297  -10.85351495108722
C         -20.90644382096956  -14.18595840195608  -11.15052499599312
C         -20.38638733805714  -13.09049138288368  -10.54882334760404
Br        -22.44020048728338  -14.23886304601080  -12.22959829306019
H          -5.28042540063610    1.46055883353439    2.51463112394375
H          -2.78888462560381    0.18148550871525    6.66875097642123
H          -3.48816751707799   -0.26228083856509    1.21623808683086
H          -6.45640241020079    4.05330654315582    8.07781960391734
H          -8.28999855682972    5.26811747144867    7.41713757259511
H         -10.41973696575403    5.73672604704263    6.33647674685683
H         -12.18496700929442    4.66833282634874    4.79361194917384
H         -13.43632835518526    3.16210216034578    3.39786212563439
H         -14.19208428239621    1.26876135588600    1.82376785976350
H         -13.38443763867283   -0.86778718618836    0.77695645286896
H          -9.61504504688938   -1.25559438129577    1.92754618024015
H         -10.99785109758465   -7.67722875753914   -2.61461667308707
H          -7.20865501905597   -8.04393662456411   -1.52006929314931
H          -6.41462149868245  -10.19235582813646   -2.55511140947529
H          -7.22481388286309  -12.16026317027372   -4.00379109141623
H          -8.48820732351890  -13.68696601755885   -5.33316774141907
H         -10.33541878805663  -14.93038278791933   -6.63501960787333
H         -12.82373196909044  -14.71115765367545   -7.26964807821108
H         -14.02080006705355  -12.00857063013053   -6.41442558477284
H         -18.62471352750959  -11.48179805911623   -8.98550745642896
H         -17.56749900158866  -16.36913466421390   -9.30601020025225
H         -20.80901958810515  -12.10538558276574  -10.62614069428951
