84
 SCF done       -172.834885338755          0.000528964993
C          -5.98139750319728   -3.64333516765146    2.44133189986726
C          -6.30577377318917   -3.46171300927242    3.75743324955423
C          -6.19135725127230   -4.46529995791526    4.74427810708774
N          -6.12578822013690   -5.24308651193753    5.58520980900008
C          -6.76488911345161   -2.25200819702952    4.32368503553782
N          -7.12591851685407   -1.30448155196555    4.86154850850584
C          -5.42577996470726   -4.85481451833701    1.85911884026042
C          -5.07124722139393   -4.59361623851553    0.51264700934014
C          -4.50896583631596   -5.54530890977063   -0.30429289461352
C          -4.28724529690692   -6.81703123952829    0.23240395004516
C          -4.65052259323469   -7.07192301228844    1.57817068250928
C          -5.21754526666195   -6.11020242366957    2.40348837898497
S          -4.29456945683715   -8.70923754548680    2.03641269551113
C          -3.66853285146149   -9.02471406195018    0.43953410506545
C          -3.72347878645317   -7.96002496367105   -0.39646348360455
Br         -3.00382876443881  -10.72828363285271    0.02709891614395
C          -5.38817217583575   -3.19352651929871    0.17293182714459
O          -5.17496243640546   -2.65010211663161   -0.88590833249200
C          -6.05503733505324   -2.63466745599767    1.38624025388812
C          -6.78609728030035   -1.49870805043482    1.44916019017445
C          -6.90485825376868   -0.45667165546346    0.44476523051523
C          -5.90179556888819   -0.01442548500386   -0.33322858016855
C          -8.17821975797759    0.15956282002472    0.39492130796465
C          -9.27574606313014    0.66913606944631    0.37549955551692
C         -10.53262104080797    1.27165654112958    0.35282964405564
C         -10.98416876083336    1.99241188355292   -0.69408067549209
C         -12.26329832655583    2.61251106719361   -0.74583863554508
S         -13.37947484539533    2.57436072067907    0.58557624440547
C         -14.56133670531450    3.48936273757230   -0.29106356114695
C         -14.10635431582329    3.79376282482205   -1.55731644035724
C         -12.80637423695139    3.31421861594006   -1.81015161952784
S         -11.88523492140974    3.51599115963388   -3.29412522880027
C         -12.78305483057759    4.57073570823826   -4.38937173518803
O         -12.25078636516362    4.83979437860375   -5.43002903593769
C         -14.16938349590023    5.11478849350802   -4.10164135963437
O         -14.69880093299187    5.81269688166471   -4.92182942769059
S         -15.10454523340835    4.75276994449056   -2.64900127702671
C         -15.87467016592974    3.79465459909214    0.25350551351820
C         -16.99227756070517    3.45294818410223   -0.48298591661429
C         -18.27391211137798    3.75675037270422   -0.03787501925113
C         -18.48087452987103    4.44281107461482    1.14317283382798
C         -17.35313040983321    4.75415020489332    1.96133915656390
C         -16.04105942009669    4.44204269897677    1.50843784020240
C         -14.96940485915066    4.86405890562842    2.32261733318120
C         -15.22251886334851    5.48703064949327    3.51522821417253
C         -16.55817313684852    5.66733224868700    3.90251876206923
N         -17.57211246232332    5.32754460401473    3.15700397947895
C         -19.81991143690489    4.80535747440705    1.53457301432663
C         -20.23177889492503    5.90023188497289    2.20752052088287
C         -19.54340280176156    7.11209787539551    2.62069309882727
C         -18.51566745197693    7.73493602594510    1.96783681648814
C         -17.93342411080688    8.94545099483114    2.39669779049588
N         -17.41068886544848    9.91547122907541    2.71818251781362
C         -17.92701519918557    7.26385779326335    0.77651117613929
N         -17.42075016952037    6.95016955734415   -0.20472246449674
C         -20.31140818968282    7.68195016793605    3.72023416687057
C         -21.55437746773295    7.00446034936345    3.81378328871156
C         -21.59675350281295    5.92168210377100    2.81276078268514
O         -22.51159879419933    5.17473039190333    2.56017444320982
C         -22.51634341551467    7.35137706657884    4.73207192966107
C         -22.23508765873893    8.40641536157261    5.60584915798426
C         -20.98350567255327    9.06349938627767    5.51741124711119
C         -20.01395970282060    8.71927117168942    4.58426180789854
S         -20.84091748543781   10.32746683829088    6.70052140773836
C         -22.44400244762380    9.96709473367162    7.28550374901502
C         -23.05514140183269    8.95047430964912    6.63213881887821
Br        -23.15643592532316   10.96489815981746    8.70391857237109
H          -4.24729728706184   -5.31353873840696   -1.32485765697078
H          -5.48159808479269   -6.35386444176213    3.41897650224380
H          -3.38109533073830   -7.97878693381134   -1.41496855792886
H          -7.41766632839817   -1.34296607516881    2.31659991840605
H          -4.90908320016293   -0.41793852905747   -0.26740417917807
H          -6.06483012500526    0.79028752351770   -1.02976991317399
H         -11.15461372664971    1.12945462523162    1.22905947899858
H         -10.36487336955925    2.11824590708654   -1.57210770370842
H         -16.87097278937318    2.93321222212908   -1.42106022963533
H         -19.12157911190317    3.49379681311498   -0.65253393160499
H         -13.95197744398619    4.69992438029549    2.00240078066512
H         -14.42160500189903    5.82745964792125    4.15174280001987
H         -16.80452501612173    6.11808292295324    4.85562149706747
H         -20.59919179296215    4.09030277099666    1.28875958782094
H         -23.45727161036452    6.82560071424691    4.77526636388286
H         -19.07318941534285    9.24374149012904    4.55623731513613
H         -24.04364295250520    8.59743166122115    6.86269023362024
