98
 SCF done       -195.943268159092          0.000476158495
C          -3.86063757611031   12.44055058374755    9.85588194076177
C          -4.87123730035963   12.94285984094497   10.63179726314794
C          -4.69006285461408   13.93717342649703   11.61685623902725
N          -4.60500610882395   14.74559317585445   12.42712604496432
C          -6.21800466848995   12.52123096699173   10.59363833574919
N          -7.32645899959538   12.22481200858472   10.64142764093787
C          -2.45395980331262   12.79830685839142    9.96070322379897
C          -1.70522250835467   11.94288070313616    9.11682655202887
C          -0.33877683371025   12.02802390598571    8.99960690136869
C           0.32083633203683   13.00522119297859    9.75168622422401
C          -0.43669282767264   13.86025514192627   10.58874363381975
C          -1.81765402290500   13.77395608287318   10.70701792883808
S           0.57579365945664   14.99977799820263   11.42220908543593
C           1.98333320054689   14.32013326844201   10.64941516602523
C           1.71165534215366   13.29354851208348    9.80867974795388
Br          3.67741903257168   15.03088998526751   11.02413015411802
C          -2.61085907119737   11.00469695070616    8.42343697155967
O          -2.27799198128275   10.15288618381854    7.63089754669606
C          -3.98396892764992   11.39034541717666    8.85243722993116
C          -5.15839038995498   11.01734421398177    8.27838171486997
C          -5.43888526290339    9.95554711863838    7.35080065923923
C          -4.71137728631648    8.74641121117275    7.32938177345418
C          -5.02266931115069    7.71565063805193    6.47536940917944
C          -6.09319432682506    7.89712829761618    5.60278879666463
C          -6.83211721279777    9.10755527891041    5.63198404093891
C          -6.54252691379220   10.12879664311872    6.50028199424356
O          -7.81611265129944    9.00584130373906    4.70506554995886
C          -7.64712256026459    7.76308231557867    4.16473650950075
N          -6.64662997958746    7.08288729354728    4.66376518809454
C          -8.54268018951297    7.32719523766024    3.16585085000495
S          -9.80166699024792    8.36660674850197    2.60855725552419
C         -10.42623776677910    7.16402266445523    1.51656359807430
C          -9.65339226281085    5.98070910647747    1.59351509116731
C          -8.58202082079828    6.07769213137677    2.52692952613523
C          -7.70638051499623    4.99785299884072    2.73227704052165
C          -7.90981415864165    3.85428592614596    2.01199476539991
F          -7.09735410208019    2.80137929639890    2.17676458116772
C          -8.97016981615448    3.75236085030989    1.08419552467505
F          -9.12854260575461    2.60829468650720    0.40070650781588
C          -9.83412890235638    4.79183886124755    0.86994292158015
C         -11.54446224239618    7.40359299432717    0.71437181629635
C         -12.20759798690834    8.60728799509744    0.65454124019576
C         -13.33438392721017    8.84315487360472   -0.12549928558222
C         -13.96643567162573   10.06937990018527   -0.21654302534885
C         -15.12151315818980   10.38120009443313   -0.96329002324842
C         -15.50691143398033   11.68935907157507   -0.87606008478734
C         -14.66577337500446   12.47423218889652   -0.06252146505178
S         -13.38351713071602   11.50175320353139    0.60783848357396
C         -14.75517006696201   13.83610105485992    0.19615306329906
C         -15.73219588281916   14.74203213985115   -0.26420077726237
C         -15.52107835443019   16.03093197687761    0.13433661862397
C         -14.36318271432904   16.20277870495511    0.92481196108944
S         -13.56568245122705   14.66849071932149    1.16400110072364
C         -13.80373364856679   17.36428500777103    1.42427073622972
C         -14.37416287343860   18.62971466667021    1.32316660022182
C         -13.76775397212021   19.82304784167960    1.65467372090188
C         -14.58933677499506   21.01576283363045    1.96248517219878
O         -15.78018040356619   21.14688795411419    1.77359887815399
C         -13.65892829305824   21.97796531216048    2.58787720583915
C         -13.92241296737757   23.19785244982382    3.13857687828647
C         -12.86248914955073   23.94308045913391    3.70456468399110
C         -11.54458009453690   23.40176955998121    3.69112521199704
C         -10.49342737057628   24.14728297926365    4.25818235573576
C         -10.75823812290281   25.37207585726287    4.80530613316015
C         -12.04658460820443   25.92182937311279    4.82850136977976
C         -13.07909505908971   25.20988855128810    4.28323913919045
F          -9.75371688130950   26.08735969842617    5.34549292590561
C         -11.30032107619989   22.13507000260398    3.10866963954878
C         -12.34073214765394   21.43712004230127    2.56090644010688
C         -12.38579928860040   20.14862838228990    1.86912015206958
C         -11.29550741352815   19.50032887482259    1.33379893998897
C         -11.38269534522660   18.44458857701279    0.40501444432312
N         -11.39897969750643   17.62256029208126   -0.39739962327722
C          -9.96174700365192   19.89211259668058    1.55637062197372
N          -8.85448425372653   20.14822807909159    1.72378430018800
H           0.20335989579425   11.36046285917760    8.34839013453066
H          -2.35045752482296   14.45212621561198   11.35228061310687
H           2.45993173201668   12.76123429253059    9.25044377157870
H          -6.02637461327396   11.62189553020864    8.51750074002823
H          -3.90106237948372    8.61883502241937    8.02632177609007
H          -4.46815230767413    6.79225781646337    6.47639175200069
H          -7.12598629027606   11.03572095419444    6.51590424060919
H          -6.90051959497518    5.08682289216025    3.44182262482458
H         -10.63127266443758    4.68037940537526    0.15368225566087
H         -11.89691809219457    6.58434903399946    0.10305306732405
H         -11.82899460439518    9.43040318435891    1.24869416678380
H         -13.75096249226951    8.02768292273332   -0.70222345996207
H         -15.63502950825008    9.63509880233746   -1.54353319574180
H         -16.36107612850825   12.10232713256912   -1.38113666338454
H         -16.55864654541030   14.42861809044611   -0.87628535558652
H         -16.15732896661064   16.85504470156200   -0.13208051047359
H         -12.85861918822993   17.26381175586399    1.93981812189174
H         -15.41781037425145   18.71059179157628    1.04289638846694
H         -14.92725379780078   23.59305840897934    3.14222785217130
H          -9.48799829253383   23.75601923545447    4.25545439765662
H         -12.19571608136793   26.89235873602132    5.27451322420443
H         -14.08079386853076   25.61277740115738    4.28920836490115
H         -10.29403753006907   21.74713447927260    3.11846901661798
