98
 SCF done       -189.095061902363          0.000508319464
C         -14.35200355279736   -1.01911694599270   -2.64606847362159
C         -13.94261816188994   -2.15359084314928   -3.30212623472083
C         -14.66941613552199   -3.36175362106966   -3.32429791768534
N         -15.20799026457893   -4.37446923045560   -3.38149777992437
C         -12.75114968358982   -2.29567763127955   -4.04261293030407
N         -11.80587230986097   -2.50451534625813   -4.66122707242617
C         -15.58697957208445   -0.89628329298302   -1.87622951437441
C         -15.65706139240341    0.40922058619453   -1.33301490107202
C         -16.70751913546059    0.83376949242019   -0.55700967098858
C         -17.74180379467384   -0.07349338867055   -0.30392066168397
C         -17.66357679607344   -1.37572857697373   -0.85066378241085
C         -16.60036343256288   -1.80521994314173   -1.63529801240018
S         -19.04610525469298   -2.33578235895331   -0.41673771133186
C         -19.70045502846778   -0.99237714054820    0.48124411684670
C         -18.92659565080308    0.11844687047004    0.45865018890021
Br        -21.34539531983540   -1.18175077888320    1.36340226255386
C         -14.46023171515453    1.17465734068187   -1.74117111594616
O         -14.20977751281077    2.32383659258037   -1.43717073760609
C         -13.66209692531758    0.25177574280439   -2.57785212044507
C         -12.47685662676725    0.57256997492000   -3.19004748327544
C         -11.83386178327311    1.81982134608464   -3.11182529206022
C         -10.66215153237233    2.05750657981288   -3.77142119634196
C          -9.96886761720502    3.28031686394213   -3.74594957762255
O         -10.41418109624360    4.34933836932362   -3.03372703822468
C          -9.54660714059495    5.37412180946667   -3.20971219968017
C          -8.51569381849063    4.96431558554940   -4.05444990793483
C          -8.78047774007195    3.62709770365171   -4.39786733055358
O          -8.05265135315684    2.82594859422118   -5.19110245977680
O          -7.43376042659049    5.65025573113692   -4.50504623522931
C          -9.75222105270166    6.62604185453655   -2.57650137675115
C         -10.79805007212455    6.88144302710979   -1.74936853383855
C         -11.06117290537233    8.10778812074783   -1.07692381898785
C         -10.33300962118938    9.24046368892275   -1.19398508750789
N         -10.61752027238633   10.39018239118749   -0.51492765459014
C          -9.93258216674986   11.55152865302972   -0.61686170097410
S          -8.60812580101749   11.69933043039160   -1.72642544329183
C          -8.39115323041780   13.34867619125046   -1.22516208154144
N          -7.33644671182597   14.04483477895381   -1.82157080318905
O          -7.13649677140697   15.19206776244439   -1.47370389572289
O          -6.68724495217089   13.42632152548834   -2.65208176307578
C          -9.28407903875340   13.75387447021109   -0.27505832067975
C         -10.18650896579867   12.73500378842502    0.10417574618247
C         -11.19287706857867   12.85509079850259    1.10861427898413
C         -11.51081222350954   14.00494442530655    1.76443308844743
C         -12.46527008131883   14.07091319817340    2.79317809886866
C         -12.79935270780093   15.22302059478895    3.46072338814184
C         -13.71117847450704   15.35127137661983    4.53761931290097
C         -13.83202807370271   16.61969443650515    5.01744845644967
C         -13.03375985259517   17.56584245788358    4.33421458616414
S         -12.11039198135088   16.79318347886785    3.07453352691360
C         -12.95021211656690   18.92872686338304    4.56250537739763
C         -13.59245257246764   19.68722020703074    5.56310613716143
C         -13.30000503001005   21.01717689833959    5.50825176657240
C         -12.43950025649315   21.38160799105275    4.44246993277577
S         -11.97606924541275   19.96289839095235    3.54172927609896
C         -11.96097331295879   22.66089266506654    4.22937525120115
C         -11.22461157489249   23.15940328989867    3.15415221492490
C         -11.07660979286271   22.72000972315236    1.84539055221090
C         -10.18876312171151   23.63046496664890    1.17472847465011
C          -9.74694280212514   23.58841769882405   -0.12445473484573
C         -10.10234195946657   22.57212006301312   -1.02747117592439
N         -10.35198909125531   21.76413388984408   -1.80330973624535
C          -8.88358732754373   24.58582844088029   -0.61729643240231
N          -8.18456341139730   25.40002520481804   -1.02343720582863
O          -9.79985499557068   24.60984218159366    2.00515221487058
C         -10.41310893085141   24.43548985670678    3.28764301914887
C          -9.30579344631524   24.28569330246793    4.33334192140739
C         -11.28158174063872   25.66446135394310    3.56728499656686
C         -11.79538389446410   21.71713975207320    1.18873023364191
N         -12.44785136865577   20.93096000705017    0.66345102270747
H         -16.73165487551013    1.83571406399373   -0.15786956810033
H         -16.58968707977195   -2.80779110886584   -2.02837481444091
H         -19.17938800927289    1.03591835234954    0.95796921749821
H         -11.98600091601175   -0.18172224949336   -3.79145585861653
H         -12.28261824719824    2.60353644098717   -2.52080522846440
H         -10.20122372071829    1.28334606934642   -4.37000392936212
H          -7.28533549106238    3.31969741845478   -5.51106434681093
H          -7.44173820388298    6.55060357064211   -4.16343339793456
H          -9.01183211945364    7.38542388819155   -2.78501166446338
H         -11.49831404249870    6.07749188500262   -1.57468432620956
H         -11.92199591843371    8.11678534525308   -0.42106138253649
H          -9.47159886075037    9.30572727462967   -1.84008155705578
H         -11.41253364847991   10.37266930679340    0.11272390538286
H          -9.26862785874703   14.74749413332912    0.13268416148261
H         -11.73183391964245   11.95599581922218    1.38126896637394
H         -11.01517546758148   14.92877003280542    1.50304684619870
H         -12.96264239795554   13.15846401430501    3.09652504587575
H         -14.24499796337604   14.50103892699640    4.92418538760144
H         -14.47610262826895   16.90138984604576    5.83069544319086
H         -14.24157471130657   19.24028771962295    6.29424688063692
H         -13.69252697339250   21.75376196198708    6.18694031150854
H         -12.15826681122167   23.36220292520505    5.03099963491065
H          -8.68306776202295   23.42539605358885    4.09645563268010
H          -9.73706492341750   24.14811766602852    5.32076949200850
H          -8.68368386367654   25.17663856905526    4.33125081283520
H         -12.08225790552075   25.73280178616335    2.83357397464037
H         -10.66634272044022   26.55747241036393    3.49536701682891
H         -11.71376417019308   25.60906759651906    4.56190102392638
