94
 SCF done       -170.165094222720          0.000677537927
C          -1.09067765446376    0.51162404865347    2.64729876627828
C          -1.40997965837145   -0.82318943013219    2.78593347909501
C          -0.53435452311214   -1.79459936169339    3.30530451249453
N           0.12768067968915   -2.63805497451542    3.71986926711054
C          -2.63612360461635   -1.41904755266235    2.43584584644565
N          -3.59895628976842   -1.99382244073543    2.18045675601538
C           0.19407514743683    1.10550635061054    3.01980878724095
C           0.15272859643993    2.48954210068405    2.72627146867446
C           1.21102109325156    3.33006185392547    2.96331073229405
C           2.37151647310903    2.77795185381016    3.51885508444800
C           2.40360767436299    1.39561215555453    3.80873908771926
C           1.33019851474163    0.54441133682094    3.56830084137235
S           3.93131713775356    0.92026556930893    4.48928768068607
C           4.49707414178874    2.56568171247901    4.37476410580521
C           3.59166254945458    3.42716403806722    3.85546429488719
Br          6.23138356046964    2.99049786959407    4.95256902119912
C          -1.17066695860509    2.82346435653260    2.15352097116361
O          -1.53502175550235    3.92751069819906    1.79233049527328
C          -1.92121947065776    1.55774382421338    2.12333653938048
C          -3.22374364801538    1.42632560615510    1.66145383762718
C          -3.99535861728065    2.45601764182333    1.15452655298279
C          -5.30249207610759    2.27727123791853    0.71336970754146
C          -6.15636188804279    3.25755123156490    0.18458229541315
C          -7.40056328829062    2.78726474479744   -0.15972035206404
C          -7.56823035101049    1.41940797768462    0.08652526991391
S          -6.11665328022926    0.73069687848667    0.76151188297820
C          -8.70751008807584    0.63669485994242   -0.14006527399019
C          -9.94388623149297    1.03934195705259   -0.65203582920000
C         -10.86159083896845    0.01542915656885   -0.73980653646221
C         -10.37669899901687   -1.21973324790085   -0.30463593957223
S          -8.72031665404417   -1.06562368235286    0.22699925700607
C         -11.06908668324609   -2.43661033339948   -0.28044531247548
C         -10.53283036946383   -3.62553396910923    0.13357163604052
C         -11.21237782751851   -4.84953756221388    0.14689885314945
C         -10.69134629526387   -6.08958991919076    0.52099011752789
C         -11.58708798914843   -7.13078400130463    0.41089250846165
C         -12.84611813608265   -6.73807214569248   -0.04801538191194
S         -12.88102501012285   -5.01835743225131   -0.34020275063366
C         -13.96762401453262   -7.54361824214004   -0.27825071660064
C         -14.06358576933840   -8.93439502809589   -0.15835347290807
C         -15.30321866132520   -9.42896207524129   -0.48034597252644
C         -16.23342974371921   -8.44665212278238   -0.85618891853631
S         -15.48927628844414   -6.86582758174484   -0.79544879500759
C         -17.55076015437612   -8.68111294614959   -1.22829999175092
C         -18.51658515626068   -7.75064205633298   -1.56506603973664
S         -18.24920970821936   -6.03025032188894   -1.53267705349031
C         -19.89306191029103   -5.65433994280492   -1.96245032216571
C         -20.62139065400016   -6.84016366032052   -2.20258324356607
C         -19.85569022565057   -8.01895203394991   -1.96292055192861
C         -20.43029473183839   -9.28173615003623   -2.14372990062217
C         -21.72729958436386   -9.37080342519493   -2.57810292330036
F         -22.28892532738983  -10.57780354045794   -2.75602519611975
C         -22.47003082541816   -8.21217090356839   -2.86441183220502
F         -23.72429661278309   -8.33290666381951   -3.33222727594727
C         -21.93523042563141   -6.96480956982591   -2.68662556829343
C         -20.25792135451547   -4.29127032585342   -1.97231708196670
C         -21.50955713710958   -3.76160866807761   -1.94038714416891
C         -21.74137406009388   -2.35630372633121   -1.92408655882428
C         -22.95115594570299   -1.76465990731378   -1.85913495748269
C         -24.24454031077745   -2.51218444508927   -1.78026582405505
C         -23.07496847001908   -0.26484669027793   -1.87605491059513
N         -23.86804719217087    0.18641874571641   -0.75728637394909
C         -24.60944416398708    1.34360970275039   -0.81827639527390
C         -25.02285008053559    2.03999567406886    0.23382129635653
H           1.14814488851534    4.38105884417013    2.72834797278418
H           1.40652198813471   -0.50271065442236    3.80830809321008
H           3.77353481414697    4.47706206565077    3.71441938852258
H          -3.67941644014652    0.44444329112859    1.69870076381859
H          -3.57687715508299    3.45029901082415    1.09464887436887
H          -5.83938296971387    4.27878245792755    0.07053156223382
H          -8.18054555300350    3.39706888038503   -0.57882592409097
H         -10.14516419512311    2.05411496296765   -0.94351480804147
H         -11.86491858749922    0.13524252656602   -1.10891618724417
H         -12.09622684064870   -2.41632617450544   -0.62363017568311
H          -9.50375294258680   -3.64510485471057    0.46985369358851
H          -9.67600166856845   -6.20069839805956    0.85775091879515
H         -11.35383437209518   -8.15115081230266    0.65503307211816
H         -13.23447425146819   -9.54472509710118    0.15001117116226
H         -15.56259291266364  -10.47242712139893   -0.45175384073598
H         -17.84978088655807   -9.72048575947090   -1.24505747032012
H         -19.87538923641909  -10.18687511662141   -1.95999624392459
H         -22.52276749628475   -6.10469263673239   -2.95583334682357
H         -19.42079834582309   -3.60316684037009   -1.93957443283508
H         -22.37057521386630   -4.40625351446166   -1.88511433418519
H         -20.85933409194728   -1.72969360489241   -1.97672387597305
H         -24.19832177646349   -3.31315440264316   -1.04560480765743
H         -24.48448037302911   -2.95546095010877   -2.74758696370995
H         -25.04712098461315   -1.83347778129222   -1.50370336358203
H         -23.59692427545018    0.03672347539693   -2.79198187011652
H         -22.07493502039009    0.19622366550898   -1.89202785115364
H         -23.46929758296000   -0.01412976896976    0.14907644914400
H         -24.89725692552627    1.62743898322340   -1.82226636767358
H         -24.74805747278927    1.76699208150452    1.23817378372340
H         -25.66357299376716    2.89287614021652    0.11902956505656
