112
 SCF done       -206.779352010690          0.000872290506
C          -4.49734166542990    1.76527596518730    0.25611470713413
C          -4.52031499021508    0.57016832355683    0.92424405777045
C          -3.38019333997849   -0.22222355973057    1.17072848906773
N          -2.48666408191914   -0.89740342214595    1.42124224246754
C          -5.68574450132792    0.00211828260005    1.47713088439800
N          -6.61323859051239   -0.49059239888467    1.94113196536481
C          -3.31918767267744    2.39147782976339   -0.33506652256702
C          -3.68604689754283    3.65765592635388   -0.86002808295902
C          -2.79164287026372    4.48372198199784   -1.49894367501124
C          -1.47901441504619    4.02890279450344   -1.65378030818715
C          -1.13091871126827    2.75003580038202   -1.15570034210230
C          -2.02804089889291    1.92602100261365   -0.48623888793822
S           0.52208324456541    2.36224624342930   -1.50493579979879
C           0.72352673770501    3.89960978952138   -2.29725680663926
C          -0.38906330410850    4.67110263501991   -2.29994261529490
Br          2.37928582755439    4.34731144877589   -3.03797532680765
C          -5.12575638403592    3.85016144915777   -0.67024901334569
O          -5.79770095572752    4.81444443688367   -1.03100397397868
C          -5.61827374061777    2.64407614989067    0.00285154352189
C          -6.95651835406571    2.44562887573893    0.23936540503041
N          -7.84358325608060    3.35113683642681   -0.18681901154158
C          -9.19971327093668    3.31721449229548   -0.12418152934724
S         -10.06135319850552    2.40798715097873    1.07308242597726
C         -11.54446278563423    3.10472551164944    0.49915014790685
N         -12.73483978756053    2.71653094462054    1.12907594997937
O         -13.77169388525586    3.21223192741720    0.73068029416410
O         -12.63704661387926    1.91027881032047    2.03668382877238
C         -11.37867048312285    3.97850552814768   -0.54366772689120
C         -10.03486855898843    4.09599548994496   -0.93802552374613
C          -9.54855475165779    4.89042393101831   -2.04134441584213
C          -8.46838804894554    4.51860626207603   -2.75829100731935
C          -7.75064514432088    5.29509735135750   -3.71792660245796
C          -6.47660935713101    4.84143461267557   -4.12159565157631
C          -5.60685967292796    5.62902638335370   -4.96365702689646
N          -4.33488372020807    5.23488032428193   -5.14464417519878
C          -3.92854635837051    4.10272544577545   -4.62718896282762
C          -4.83889352299009    3.25277675480991   -3.91502543006473
N          -6.06183712597697    3.64523591608383   -3.66757692588920
C          -4.40133197566654    2.00240658375784   -3.41888912313873
N          -4.00680620512184    1.01273819902487   -2.99551695646282
C          -2.57293570385729    3.71885717320744   -4.74587182838476
N          -1.48094773805685    3.37166117539397   -4.79258887533779
C          -6.02974018015391    6.84958763076002   -5.53502703151290
C          -7.31266451664113    7.28963063154115   -5.14806868938005
C          -8.15240002529643    6.53811777937612   -4.23890934990943
N          -9.31549240353789    7.15302975301429   -4.01389184561030
S          -9.36187500570736    8.51439447420347   -4.86462346134728
N          -7.92008529681229    8.41009699158200   -5.55378766857161
C          -5.19824203905293    7.61143212677999   -6.44599466291592
C          -5.28024385669173    9.01388283916386   -6.46088510086432
C          -4.50437582353414    9.73071627397642   -7.33471836168935
C          -3.65909786375476    9.06900907849226   -8.24766862757447
C          -3.56838636180437    7.68235131407669   -8.23902318024434
C          -4.32769481725346    6.96759395235773   -7.33815822557320
C          -3.06040067005782   10.05070307585293   -9.11681864259152
C          -3.54119572845273   11.32300564507274   -8.75265767984133
C          -4.42738137316823   11.22730501416163   -7.52893656335240
C          -5.80995748582575   11.85532152928121   -7.75361951693177
C          -6.53233980650417   11.25131467716288   -8.95227460052704
C          -3.66684142429231   11.91667667270207   -6.37073761603921
C          -4.28816383457783   11.76542856065225   -4.98863439302937
C          -3.17053670695136   12.43535301300414   -9.46092826094314
C          -2.29737407810327   12.31318884239062  -10.55969813477432
C          -1.81329823761062   11.03634536528661  -10.89605776529082
C          -2.18681396507938    9.91445869055413  -10.19045085990445
C          -1.96409957477213   13.50167375817823  -11.28815010304456
C          -1.06450783954373   13.61279106891053  -12.30214188974726
C          -0.76479219105204   14.78029939441156  -13.03645832525318
C          -1.35504979503029   16.01907552912835  -13.00293164369850
C          -0.96042322231862   17.11497586894931  -13.81915659918949
C          -1.69839842677291   18.24342998090717  -13.65780456846683
C          -2.73275771701024   18.11889318578474  -12.69811548382887
S          -2.71532479969066   16.50800148505191  -12.00677396115379
C          -3.65332373798907   19.06437652381979  -12.31326049029704
C          -3.77451503004833   20.39882487467139  -12.79391209371194
C          -4.78563603879642   21.10131866410446  -12.23779844407873
C          -5.54979863487475   20.37298810674793  -11.26557056033903
S          -4.88582470594085   18.73833713040866  -11.11223863480602
C          -6.60377801836217   20.80336088805247  -10.55929864522712
H          -3.09640029930817    5.44704541376521   -1.88043922987524
H          -1.71501302549774    0.95983043291563   -0.12817300473707
H          -0.44386508824819    5.64467916042155   -2.75151846488345
H          -7.34111840105191    1.55772761004074    0.72449615805754
H          -7.41251039021249    4.15852276199093   -0.67724190201905
H         -12.20089715783037    4.48475405642474   -1.01602959361459
H         -10.07662578871658    5.80276003028631   -2.27549183192327
H          -8.02419952259201    3.54674676344812   -2.59368738978577
H          -5.95676994627170    9.50729292312617   -5.78356664065235
H          -2.92978236378137    7.16827861985804   -8.94139684187531
H          -4.28516103292794    5.89038628517014   -7.34785215800310
H          -5.68835003540030   12.93007874195830   -7.90382969707446
H          -6.41996561244156   11.70503976452369   -6.86246934115764
H          -5.95142408621602   11.38731139789232   -9.86199052459444
H          -7.49939190083966   11.73021354255635   -9.08677725542340
H          -6.69386646325213   10.18620789170808   -8.80236822470440
H          -3.58646880570692   12.97870095575761   -6.61324009367647
H          -2.65333645398213   11.50732286499635   -6.34507199661069
H          -5.30253115413774   12.15443591133659   -4.96400267244763
H          -3.69615242299353   12.32352757344913   -4.26620146747467
H          -4.30099436726470   10.72348631690239   -4.68095427966716
H          -3.54321046877408   13.41403848785999   -9.19431285403192
H          -1.14501120042568   10.92707744838942  -11.73586969908938
H          -1.81117684756700    8.94177941732729  -10.47105854482366
H          -2.48948759250602   14.38893370081502  -10.96397534881178
H          -0.49478011893040   12.74024751515225  -12.59196218871550
H           0.04162950655781   14.68871399721243  -13.75444463219456
H          -0.13716278328903   17.02390081939690  -14.50607700994195
H          -1.53391380300563   19.15659589072979  -14.20084169250587
H          -3.10321562090480   20.78787513376903  -13.53874709413225
H          -5.03147896228082   22.12093291285732  -12.47569295209419
H          -6.97646334127653   21.80458259455375  -10.68450377106141
H          -7.10781648670307   20.17031631355201   -9.85230589286308
