116
 SCF done       -215.504821450011          0.000940618063
C          -5.67670602981785    6.79840702856805    4.67268810858031
C          -6.01544699895763    5.63821949960876    5.31992755272982
C          -6.52742204731046    5.58347059782769    6.63292184082325
N          -6.93543593580510    5.48432366883951    7.70105322753679
C          -5.94135099000022    4.35886347234519    4.73332850815377
N          -5.93795369816381    3.29505962020160    4.30096201250574
C          -5.87170183216386    8.15121902219265    5.17169678662399
C          -5.56955093508748    9.06812508322376    4.13348184320129
C          -5.67194054084070   10.42823768859733    4.29755431629748
C          -6.09397776740124   10.90625846110697    5.54272030227651
C          -6.38758264203069    9.98218226420501    6.57526196180464
C          -6.28362536917284    8.60697332168308    6.41057751094964
S          -6.87941583162380   10.78741525346513    8.03334313044399
C          -6.68996608160356   12.33245980869481    7.24861584528449
C          -6.27914219737402   12.25227644802074    5.96024264577154
Br         -7.04800762382885   13.90457596456883    8.20481890499621
C          -5.13305214514489    8.33480140686214    2.93040162483843
O          -4.70748229507161    8.81318385972182    1.90549750789098
C          -5.17499518951191    6.89311895242786    3.31655409716957
C          -4.61504739101925    5.89085074885068    2.58599237026368
C          -4.34498724205170    5.97833090490521    1.19751869867047
O          -3.36755510213468    5.20169659002320    0.64881919351078
C          -4.98299362519494    6.65259781811625    0.17521190207105
C          -6.11303682938931    7.54249696482631   -0.14382283479217
O          -6.98151047023802    7.99160095588950    0.55253464243896
N          -6.00978805789628    7.71683211730754   -1.52176824983711
C          -5.02641074469538    6.95662938611034   -2.13733315044738
O          -4.82754087623832    6.90477466513633   -3.32913506809107
C          -4.36083377754113    6.26504710989751   -1.03051537832890
C          -3.34939537577341    5.37421985177194   -0.69320442772233
C          -2.34895817811116    4.75051954557681   -1.48456091873162
C          -2.45217390450707    4.70061095859316   -2.83257564562439
C          -1.41828117541492    4.30369578007402   -3.73080600738517
C          -1.61013254285333    3.98008615079697   -5.02755734649783
C          -2.96027197675516    3.74743661788765   -5.61459770300132
C          -0.46562417850007    3.98410435245467   -6.00305989296300
N          -0.56596865505831    5.25557747855641   -6.71344459877880
C          -1.45109049199925    5.36514657803559   -7.75554128005723
C          -2.33454415550951    6.36950885232293   -7.88572156946471
C          -3.25091066474824    6.53034111000176   -8.99100617094166
C          -2.92542894807149    6.47837831385664  -10.38353170883074
C          -1.65451239623051    6.31894567904326  -10.96087211434392
O          -0.52315003246448    6.11687024080812  -10.20931477370945
C           0.28022011393790    7.27471869831261  -10.01556567190235
C           1.54809702840827    6.84536164614221   -9.29945940322596
C          -1.58292980696975    6.34479969905195  -12.34539788873583
C          -2.71544741527963    6.50184486541950  -13.16738150986661
C          -2.37810305834473    6.46021804402870  -14.55106831773613
C          -1.05766456327097    6.28394548387939  -14.76028016885662
S          -0.13670446547409    6.15516282385273  -13.29896102718552
C          -3.99237867450224    6.67988248652664  -12.60245331810755
O          -4.99066841996100    6.83353868664494  -13.49905108684173
C          -6.35158912417118    6.74892855366934  -13.10885478307425
C          -7.17821337791152    6.65389645490935  -14.38163111277504
C          -4.06434545824249    6.68832174068219  -11.21426956491087
S          -5.49186816936027    6.99500907286053  -10.24775554950954
C          -4.59714847091606    6.78455607909314   -8.76569171399093
C          -5.28358317463120    6.71533411218281   -7.53178693347670
C          -6.57739955282151    7.09956203241903   -7.35359454509782
C          -7.30600166495025    6.96012632119171   -6.15130038455737
C          -7.19539086516115    5.99914774652020   -5.18387961237883
C          -7.74269193402410    6.25420359826908   -3.83196797834499
O          -8.36842468260185    7.23075041779678   -3.47261696467508
C          -7.25175077080821    5.15059001412093   -2.98343708693291
C          -7.37587243758268    4.97712302565933   -1.63487805313971
C          -6.63809749741968    3.95176633149939   -1.00033045576221
C          -5.79520858115727    3.11476800391742   -1.78643799574134
C          -5.00200728856808    2.14782150725875   -1.14117263095462
C          -5.06239322920371    2.02799242882152    0.22001661213423
C          -5.89872480987695    2.82742747592119    1.01032951921598
C          -6.67434580963601    3.77346544786952    0.39793733007407
F          -4.28799717833686    1.11475718953327    0.83241221360057
C          -5.74913272900363    3.26881431868446   -3.19216421066409
C          -6.46904740330316    4.27028336972486   -3.78239879253461
C          -6.58556910616030    4.69123083316306   -5.17886583019398
C          -6.38706449421358    3.86028017241451   -6.25356480001689
C          -6.69393702492899    4.17792608252079   -7.59059720811208
N          -6.95015267796928    4.33346063158743   -8.69918002544295
C          -5.93895997930016    2.53116529386431   -6.12856262117851
N          -5.56021933213288    1.44740760227757   -6.08195765680956
H          -5.43898785230091   11.10198671269944    3.48824850565016
H          -6.51158751194261    7.94220944462397    7.22722997862836
H          -6.11234573250231   13.10633329638198    5.32968757809281
H          -4.33553994612519    4.95641565803401    3.05535252927152
H          -6.70936383713880    8.22490276002283   -2.05003559752964
H          -1.50595509044993    4.32523834980590   -0.96013277774181
H          -3.37142480316994    5.06281424092531   -3.27203019780935
H          -0.40767352486502    4.32175090229711   -3.34130969908429
H          -3.70862508280935    4.39729265382539   -5.16701259519658
H          -3.25715197516787    2.71500441978742   -5.42800922492581
H          -2.95851590938974    3.89734505563902   -6.69192671886092
H          -0.53361630025871    3.17332932244452   -6.72987927607020
H           0.50098322204752    3.94024761402278   -5.49613223209825
H          -0.61071287737201    6.03827034807092   -6.06806600025460
H          -1.37956102016363    4.57882256497863   -8.49366208732673
H          -2.44333227183840    7.07847328597225   -7.07334114096554
H          -0.27760081525137    8.00669840648452   -9.41249809050457
H           0.52121503469489    7.73438318289200  -10.98326643590554
H           2.09272790999849    6.13363990226000   -9.91329182546225
H           1.29368714398295    6.36973351612452   -8.35627091377981
H           2.17649502937408    7.71110309798802   -9.11170256731357
H          -3.11177901228464    6.56089932006337  -15.32886451034303
H          -0.53920649924995    6.21698582906046  -15.69645878439045
H          -6.63815889776995    7.64111825748305  -12.53857928344019
H          -6.51260251453107    5.86233802788096  -12.48527308497967
H          -7.00798094849426    7.52918262655068  -15.00257840291322
H          -8.23240335371643    6.59395525860042  -14.12890458338070
H          -6.89527073657095    5.76827832725681  -14.94407766947789
H          -4.72520303958666    6.33864764046618   -6.68398932076517
H          -7.06999382635557    7.62788204446349   -8.16071591636271
H          -8.03228254965274    7.73783092542357   -5.93313397713553
H          -8.00657205919802    5.62979072309633   -1.04876147507604
H          -4.35128079985882    1.50871645073115   -1.71742853581713
H          -5.91320796026844    2.68548931582619    2.08017737042185
H          -7.32083066518996    4.40921594696284    0.98498054591801
H          -5.12182189804851    2.60158608604977   -3.76091005029663
