110
 SCF done       -213.211867891647          0.000917568249
C          -6.12415996103100   -1.71932104623882   -0.96179317890322
C          -5.24090121444900   -2.74873450816855   -0.78662117556575
C          -5.55930721605690   -4.11053853786623   -0.97911168513618
N          -5.76025472453323   -5.23084449067855   -1.12466633246607
C          -3.89095214936794   -2.59071805448066   -0.40691012658786
N          -2.78783745719826   -2.52686707535545   -0.09615411401608
C          -7.52734407359028   -1.84647243175713   -1.33182245554421
C          -8.09379338779277   -0.55355396082647   -1.46916457944623
C          -9.41644763953014   -0.35128372981776   -1.77866483920999
C         -10.22248988490217   -1.47920325255990   -1.96227243206544
C          -9.64708693474293   -2.76762546087027   -1.83629519912179
C          -8.31019801467955   -2.97209289534647   -1.52283313745664
S         -10.81955408940088   -4.02049425954340   -2.11006121363845
C         -12.04926808280442   -2.81507758651429   -2.38320051471433
C         -11.60722495598040   -1.53904423019559   -2.27579058121776
Br        -13.79852781630580   -3.35438258192694   -2.78726395084704
C          -7.05472355621049    0.46276720043256   -1.22708237522718
O          -7.11495480885774    1.64569945292627   -1.46640314836670
C          -5.85107570862378   -0.29862565326613   -0.77649932580164
C          -4.73755458155198    0.30550740047278   -0.31217937876674
C          -4.71594219776362    1.73222689353875   -0.00694443867085
C          -3.88727175690616    2.58976639361642   -0.73781209959319
C          -3.91406449269914    3.95679063075334   -0.55422734729520
C          -4.75368706781753    4.52865529652558    0.39696699365337
C          -5.53001328903918    3.69655805717145    1.16826742233863
C          -5.51630711783715    2.30689045100770    0.98059040940916
N          -6.30097648396952    1.70123215356011    1.94836837717409
C          -6.50554347776764    0.29797036259372    2.16672509207267
C          -6.87717469610765    2.62909698751495    2.77950654441854
O          -7.56357410954453    2.36981457219627    3.73611857801808
C          -6.49045729022385    4.01303958351323    2.27179220073021
C          -7.76890763108261    4.71164647434828    1.76099501647581
C          -8.28795858026610    3.96821477832261    0.52630097921498
O          -8.67066322853850    2.82307793918146    0.47734017796643
N          -8.23512314977865    4.83341879009607   -0.52922860802398
C          -8.57066878336707    4.46107774838596   -1.87612051819454
C          -7.81331645160785    6.09353013677706   -0.13520494513428
C          -7.68901811361237    7.24182300962610   -0.88865540739631
C          -7.30705535493208    8.42719004556373   -0.24369739458621
C          -7.00812817256436    8.40623775555580    1.12214048341268
C          -7.10982106747528    7.24047400056430    1.86475780314749
C          -7.53074303392823    6.08878697890424    1.23744141268313
C          -7.28454165867509    9.65978561891412   -1.00587370707614
C          -7.47078883294293   10.87933620923993   -0.46685606683974
C          -7.57165661498272   12.09773702260713   -1.19626311498643
O          -7.31382147118725   12.18946236320478   -2.53069694792585
C          -8.00112375095936   13.33008772324776   -0.74788341219400
C          -8.44826921454466   14.07411788449484    0.43232700626295
O          -8.57714753146248   13.73763157133444    1.58133297499744
N          -8.71365883827249   15.34670897553361   -0.06764792989673
C          -8.49276748927802   15.51049764312331   -1.43726550893083
O          -8.67345374768495   16.53239584065378   -2.04895029202652
C          -8.02638331991254   14.19451542301727   -1.86751394544042
C          -7.58645730804695   13.45888936655428   -2.95629701346253
C          -7.42299255836449   13.87442157577528   -4.29387405604428
C          -6.79714196234860   13.17420362944443   -5.28423037553786
C          -6.69798983212758   13.66999412395508   -6.59267709272894
C          -5.96179366009146   13.11866152317074   -7.61143325361390
C          -5.88842978321134   13.60485869033838   -8.94109094720447
C          -5.04178685931685   12.90930899947155   -9.74648408328347
C          -4.37972301445127   11.84186194671332   -9.09570588758931
S          -4.91048277575569   11.72363127118319   -7.43135361858287
C          -3.40922980683764   11.01752042418141   -9.62843886491488
C          -2.91085663378454   11.02589893707738  -10.95315145854805
C          -1.91075425352106   10.13269265623816  -11.17152695294829
C          -1.55024738361010    9.36921948209029  -10.02948979332408
S          -2.56953570683098    9.81301742058964   -8.67116305530236
C          -0.54075371401967    8.44764950751492   -9.97818131201657
C          -0.11324181732978    7.70206566556518   -8.86565904980122
S          -0.82507931059944    7.75850141780463   -7.26173516673038
C           0.27969167258034    6.62433878334499   -6.59526667017421
C           1.17585158872879    6.19963021206011   -7.54835155712757
C           0.94420935165740    6.80892017812036   -8.81793485487144
O           1.83867207260858    6.37959574785608   -9.73130550585092
C           2.63797882491989    5.50517953661240   -9.06162840430267
N           3.68768237945394    4.88933669390258   -9.78623041885132
O           4.39337402853916    4.11825879659705   -9.16413553758832
O           3.81152234816453    5.17231284657999  -10.95763434370542
C           2.29783376996582    5.34763768437897   -7.74522826735661
H          -9.81874216361098    0.64617974510311   -1.85529201973250
H          -7.92157050655276   -3.97254582290863   -1.43115505661272
H         -12.23098314398264   -0.67441546549975   -2.41049993110516
H          -3.81589614020517   -0.24362975585915   -0.16910441162041
H          -3.24666965769113    2.16023609911016   -1.49352635375258
H          -3.28166438832188    4.58847317611020   -1.15850074246246
H          -4.78364749962288    5.59861627039275    0.53629474824615
H          -5.55775716467229   -0.24128756864583    2.11796782143493
H          -7.20236531304028   -0.11690507110383    1.43383983218773
H          -6.94161561783020    0.19366352872799    3.16138816233841
H          -6.05229275693125    4.61396373168227    3.07241298736745
H          -8.51255874480115    4.68067968524573    2.56350596136046
H          -8.63978038793690    3.37523190123925   -1.90189509770400
H          -7.78292032309444    4.78232079171178   -2.55789611651874
H          -9.52175958819869    4.90529182573218   -2.17976138292890
H          -7.91759682542933    7.24984906628394   -1.94310380964465
H          -6.68115728739863    9.31211931535227    1.60653685259724
H          -6.87777964226245    7.24225682830706    2.91898094145500
H          -7.18695431513538    9.56863178893717   -2.07974096001862
H          -7.63956854646217   11.00231977532476    0.59316676175079
H          -9.04917925184963   16.09767519472779    0.51839897608052
H          -7.81380238076220   14.86148275309905   -4.49928133151012
H          -6.34523442897441   12.21676827601349   -5.06058639512593
H          -7.23812168176304   14.57960087193551   -6.82254665658025
H          -6.46557146838906   14.45660920021096   -9.25467554273483
H          -4.86241416716394   13.14320782866666  -10.78014218306192
H          -3.30220261994772   11.68877985595240  -11.70327089228099
H          -1.40580847397652    9.99815387931238  -12.11145784724931
H           0.02008156121781    8.27104191996487  -10.88692545625101
H           0.20531603579908    6.34707717589550   -5.56459109551028
H           2.79087151033139    4.71229646890921   -7.03921226358498
