109
 SCF done       -208.519152257914          0.000977763460
C          -8.49986702752662   -2.46012427058499    2.52634512346087
C          -8.10297104740384   -3.26092544586080    3.56797735733619
C          -8.50186226629770   -4.60298361104342    3.72821676530580
N          -8.80170966029226   -5.69524912209026    3.91837916039043
C          -7.22382105938282   -2.87223378186203    4.60017399528679
N          -6.49519575255938   -2.65300380076394    5.46067694036357
C          -9.30369441155773   -2.88691709886824    1.38615880160794
C          -9.39668539401064   -1.80969210764157    0.47245341330708
C         -10.07657173252013   -1.90386170623204   -0.71668177588135
C         -10.69332630363897   -3.12215935212468   -1.02085150949663
C         -10.60179236131972   -4.19008712841241   -0.09831336150712
C          -9.91463953618165   -4.09419558843073    1.10588965147042
S         -11.44536274524500   -5.59922691116805   -0.66643183257131
C         -11.89838272117879   -4.74669341116882   -2.11804282703666
C         -11.44507733857766   -3.47266983586873   -2.17606351040147
Br        -12.93145002889505   -5.61744934280764   -3.41862399686215
C          -8.68459448298782   -0.63723029523250    1.01971194460838
O          -8.68394434500807    0.47976496911865    0.53856080560072
C          -8.11635528944703   -1.08295273868482    2.31063756282525
C          -7.50397825685180   -0.27104350539761    3.23019940687040
C          -6.92042304624870    0.99006479822234    2.97672084643620
C          -6.34206587965362    1.35470109284964    1.73963719087864
C          -5.86816630037028    2.69317887355638    1.47942577920765
N          -5.44066841566733    3.00587298522577    0.26412733541181
C          -5.40331459017479    2.09076291842658   -0.68969288759059
C          -5.71768630911356    0.73710903678654   -0.37412207957090
N          -6.16408038361988    0.40567544710414    0.81049691139989
C          -5.54462285916872   -0.26509198107263   -1.36169172744671
N          -5.41431745900327   -1.03148066543003   -2.20330685036249
C          -4.98786218034745    2.43108908866699   -1.99270017822062
N          -4.64427575661435    2.63354924884887   -3.06941906654600
C          -5.84640021328218    3.70304604032058    2.49182512359893
C          -6.28584534153549    3.26903897890938    3.77971424809819
C          -6.81327029058271    1.95251323052212    4.01338449994700
N          -7.20322665705841    1.78943161794851    5.27315464071771
S          -6.91434400606288    3.14604624732932    6.09220320088489
N          -6.30113147725298    4.01352971757748    4.87979827624034
C          -5.47715774146849    5.03682398440059    2.33676385567655
C          -5.06255077460953    5.77091088698503    1.23336144203427
C          -4.77488177699739    7.15430290004238    1.31354802648562
C          -4.40819116388248    7.73375769481235    0.13073308585034
C          -4.39073952041768    6.81859183541880   -0.93317385971814
S          -4.83805532824515    5.20734703877078   -0.39436182769810
C          -4.06112748365355    7.01069445579678   -2.26690727415795
C          -3.56305471350185    8.17074649206319   -2.91180806636269
C          -3.28970898052653    7.98842375524883   -4.22997863367093
C          -3.56284672435888    6.67161932467236   -4.70297790204088
S          -4.20045623142727    5.68720986806884   -3.38100089446948
C          -3.46184059437947    6.17700847855227   -5.96452778391240
C          -3.67445440386148    4.77507448678351   -6.27501031795232
C          -2.91540240854425    3.79216548431048   -5.62575754556049
C          -1.80076605439468    4.09475141239776   -4.67117465569256
C          -3.15890919296145    2.46333490447577   -5.92465245224149
C          -4.11228303271782    2.05415521205087   -6.84724340751662
C          -4.34383640885733    0.57587118688003   -6.98755142441304
C          -5.46263282423927    0.13341058084855   -6.04047938421441
C          -4.83118058016961    3.02214423177216   -7.54719123702031
C          -5.88765540913253    2.64290073817455   -8.54619515887858
C          -4.60652988232993    4.38648336528204   -7.26826947494858
C          -5.41336875646024    5.35849355965495   -7.96824380114160
C          -5.90789370233732    6.52303566417754   -7.48525505005424
C          -6.83743835706027    7.29629934955881   -8.22612698847611
C          -7.48730630153253    8.42097610946992   -7.81075920792108
C          -7.25891207869513    9.25825798638789   -6.65730805417876
C          -6.02702874000302    9.53911553905161   -6.11962842203349
C          -5.81508296163879   10.28931652558090   -4.94931391251807
N          -5.59256643797417   10.83870763615284   -3.96548630893396
C          -4.84369366924194    9.17483085521250   -6.78751392307672
N          -3.86985559945419    8.95821135878857   -7.35658439173219
C          -8.51070127882291    9.93246471277965   -6.34735999775435
C          -9.41248145057691    9.71628494507019   -7.42146653836017
C          -8.78376336723378    8.82064558257750   -8.41877765720221
O          -9.24222691330625    8.44825294360946   -9.47325933456894
C         -10.66234851990279   10.28401972785591   -7.45238722404963
C         -11.04132329892022   11.08997320000085   -6.37248498653702
C         -10.13611018910483   11.28932820899060   -5.30202459097876
C          -8.86690888445218   10.72484893827665   -5.27352150984289
S         -10.81388214030093   12.31453389355582   -4.07449642865051
C         -12.28158968142729   12.46504718389700   -5.00375917322674
C         -12.26735267662354   11.78084314173559   -6.17263548200448
Br        -13.69176488651324   13.50834805755337   -4.34202763550560
H         -10.12737546282744   -1.06644026852568   -1.39472234637784
H          -9.87680205594997   -4.93528774908143    1.77771465273523
H         -11.63170251184821   -2.80546217752106   -2.99766218537721
H          -7.48610109834474   -0.57471895772767    4.26977859541543
H          -5.54727584856475    5.60866276764220    3.25575832068779
H          -4.85183948832839    7.68440390613300    2.24670849060093
H          -4.16870835466949    8.77568840335835    0.01281521567437
H          -3.42051435223969    9.09703155878869   -2.38532986484005
H          -2.88326120468012    8.74114863831675   -4.88142537856472
H          -3.22589164912938    6.86038881749351   -6.77234987375393
H          -1.49350593718912    5.13599097901351   -4.70697011305817
H          -0.94100564842763    3.47071563713738   -4.90839897420601
H          -2.11367105266018    3.85320818134995   -3.65600349991834
H          -2.58379853219055    1.71101882605764   -5.40546019583386
H          -3.42794660436621    0.04821714016574   -6.71672008653747
H          -4.58749380218722    0.30017639096887   -8.01395872453285
H          -5.20922481239118    0.39197349497529   -5.01507987756828
H          -5.60575376848626   -0.94230542643366   -6.09982304431160
H          -6.39956691984562    0.62479042302044   -6.29173852752688
H          -6.06141873815900    1.57369259250644   -8.55556245045185
H          -5.58766910438564    2.94248498967675   -9.55104772246433
H          -6.83132520417512    3.13146186994780   -8.31095583389398
H          -5.69900858585542    5.08986064209268   -8.97737093465255
H          -5.69433191814873    6.81888571889030   -6.46827222172477
H          -7.17859359325547    6.88532156020291   -9.17050670313980
H         -11.32811777137137   10.11643744935981   -8.28428811986154
H          -8.20551556614372   10.89970266964000   -4.44029320742070
H         -13.08747632624346   11.76308588778041   -6.86677726787521
