99
 SCF done       -217.170265946010          0.000970425927
C          -7.77018743167983    8.86770963831689    0.04193477985051
C          -6.65087223274566    8.75143329597613   -0.74202259915588
C          -5.59471167416555    9.68711569885996   -0.76789082250065
N          -4.70259992168072   10.40575084444927   -0.83389102715414
C          -6.40260135700224    7.69867880459739   -1.63902356565636
N          -6.13765482392211    6.87897127166820   -2.40113055848076
C          -8.05729175985181    9.96092105460435    0.96428857917452
C          -9.32581303107968    9.74136244894451    1.56471708207379
C          -9.86699519103207   10.60217896835916    2.48866224186621
C          -9.12426778176010   11.73504358574632    2.83857665130258
C          -7.86121571930407   11.94760487806083    2.23369009622957
C          -7.31377334561035   11.07676316936972    1.29908934908330
S          -7.11362076371244   13.40401518270983    2.81050850508374
C          -8.48576386811673   13.70555548340128    3.84288756706993
C          -9.45697258630135   12.76362118060782    3.76005152310890
Br         -8.50776971379942   15.23102391287195    4.93114604125977
C          -9.89036434533317    8.49349968486394    1.03770874634091
O         -10.95757971069039    7.96810565030011    1.32594844233647
C          -8.89262853177033    7.96019766140163    0.09994590366418
C          -9.07756462341391    6.76899162018638   -0.54759328195752
N         -10.20856501486822    6.06512929379041   -0.37854594236270
C         -10.54164235540452    4.89869716141953   -0.99893946841592
S         -11.62634576632574    3.80052747770623   -0.21222113457878
C         -11.40496010491644    2.67619951578674   -1.51446075392679
N         -12.12149401237419    1.46748524549941   -1.45934475556087
O         -11.97194637976044    0.68142588988081   -2.37142300977201
O         -12.84015627828741    1.30879781026021   -0.49037741927877
C         -10.54528205210753    3.11832156180479   -2.48261313595456
C         -10.05133332084638    4.40999809990875   -2.21374396231828
C          -9.22916895186031    5.19421562869558   -3.10530178324639
C          -8.31771421739263    4.66094768852415   -3.93558827778103
C          -7.41708607956333    5.36224035201695   -4.81281163268757
C          -6.52476509333031    4.59185930800543   -5.58511589221270
C          -6.40282740190700    3.11590311092605   -5.67807221870298
O          -7.03598897561360    2.24410821439944   -5.13925161944282
N          -5.35221055809141    2.86475672345998   -6.57094120499131
C          -4.78976852299351    4.03828247563236   -7.06356741359205
O          -3.87840958544389    4.12369952851374   -7.84800377528480
C          -5.54802670568584    5.13766538130033   -6.41859217760657
C          -5.37501632215595    6.49997787509102   -6.56174566865083
C          -6.25760743760194    7.27297418178946   -5.82465546059369
C          -7.24621148576769    6.75841818395297   -4.97826614348133
C          -7.90709141530147    7.94475768598660   -4.37337577651634
O          -8.80420235644589    8.04905759120433   -3.58863476578612
O          -7.30572293118466    9.07022424384213   -4.87302913626483
C          -6.31767361041863    8.74824065986773   -5.76611743106463
O          -5.68319757095874    9.56685320194983   -6.35484564406190
C          -5.02218663634851    1.55062862198291   -6.91864179393884
C          -4.05884673670113    1.25330323282610   -7.79365196331575
N          -3.72260301386427   -0.01743721594129   -8.21374538212399
C          -3.01061408889761   -0.23242891003338   -9.35299264623333
S          -1.96236179512444   -1.59898733934570   -9.52625190809215
C          -1.41621863861371   -0.96565743025474  -11.05273878179517
N          -0.48196484042864   -1.73749148762921  -11.75462359534270
O          -0.07546616420222   -1.31434251857852  -12.81777380725933
O          -0.14620803100017   -2.78601133545320  -11.22910427260197
C          -1.99828520052599    0.22522525671708  -11.39471489966773
C          -2.94148319875401    0.64857644704416  -10.44135627289588
C          -3.82516164479904    1.78306559583369  -10.53929480875284
C          -3.52975214424912    3.01160012841171  -11.01307781420002
C          -4.45431803228954    4.06501274607360  -10.79391432293033
C          -4.28768676674271    5.40802637971914  -10.92338420979337
C          -3.28296497173601    6.21816317669493  -11.57980057035712
C          -2.55690404229654    5.87240912176860  -12.68849404371317
C          -1.63301850344931    6.72840761896772  -13.32392053549314
N          -0.86092908655710    7.38017036665101  -13.86854291748909
C          -2.71288559643191    4.65435085512676  -13.38299434835209
N          -2.82810661437129    3.69574304786720  -14.00337105517427
C          -3.33145962334309    7.54268395414981  -10.97132414486587
C          -4.44996400363198    7.60509165962633  -10.09968523882066
C          -5.12861820630803    6.29850243332424  -10.08216105871165
O          -6.11153884816376    5.98168797736428   -9.44281171055540
C          -4.76740784805584    8.73922912459423   -9.39104657545310
C          -3.93740956140516    9.85440589881473   -9.53471958090620
C          -2.82551371608778    9.78367008625957  -10.40867794393970
C          -2.50889386151991    8.64154225566000  -11.13451893478955
S          -1.94283675628372   11.27845960675460  -10.43372826392681
C          -3.05869460058039   11.96206847568428   -9.27748499271789
C          -4.04535229254156   11.11809600221580   -8.89432489311498
Br         -2.80998255022992   13.72458707889339   -8.69317661888898
H         -10.83266827727932   10.40890302011480    2.92871420214719
H          -6.34770244369678   11.28140848667137    0.86875876712674
H         -10.36999638464451   12.79293894441873    4.32608654244174
H          -8.31610447584049    6.34306106879832   -1.18545105180368
H         -10.84806353496310    6.47040732112810    0.32619901064017
H         -10.31512541643480    2.54748230920677   -3.36386376551989
H          -9.39615608302297    6.25875350618943   -3.07470672998489
H          -8.18479233221768    3.58857457650208   -3.93286478362217
H          -4.61173309380365    6.93043668222033   -7.18729942539543
H          -5.64134749823601    0.81631898320346   -6.42289597790003
H          -3.47859186152363    2.04073782015194   -8.24947172620036
H          -3.94444730198193   -0.80592735327253   -7.62186445405453
H          -1.79054709821017    0.73999771168220  -12.31561695063487
H          -4.81345228420339    1.62364817561870  -10.12324711630242
H          -2.55049177325200    3.22222953356250  -11.41169287322554
H          -5.37232937073386    3.78309808926038  -10.28653126419775
H          -5.62505319449746    8.77647434029844   -8.73903917552533
H          -1.64706456091170    8.62892058123918  -11.78108784398839
H          -4.80823248001340   11.35543716500469   -8.17585352748412
