112
 SCF done       -196.369422542923          0.000928202592
C          -1.62510653822736    0.20741888271405    0.83005876281597
C          -1.61227279157671   -0.88693428273056    1.65576719203545
C          -0.62587754475973   -1.13337345398599    2.63195115565890
N           0.14833560773919   -1.38346777053703    3.44158963639683
C          -2.58681885676945   -1.90506364295108    1.62922016634542
N          -3.35873468784237   -2.75452840632049    1.63899882215443
C          -0.63708252495920    1.28405727282361    0.82038870725213
C          -0.99271930152195    2.22732831924492   -0.17879154396861
C          -0.25490783551859    3.35970428740726   -0.42657065391667
C           0.88988215954920    3.57392654775115    0.34807512606862
C           1.23787381551722    2.62798485708206    1.34152168417677
C           0.49101450016304    1.48196733977788    1.59179495534130
S           2.68563771365017    3.08807754226588    2.18229641673040
C           2.80380663579607    4.52530889036651    1.20189468549604
C           1.81002073148367    4.65587927129210    0.29081564503306
Br          4.22534577736086    5.71734251892214    1.47554184671569
C          -2.22340927167460    1.77650767091370   -0.83639976139146
O          -2.82713403091348    2.33327148058094   -1.75156612938029
C          -2.60183396155397    0.52023087692443   -0.18635146877743
C          -3.73585948297045   -0.16617063458459   -0.55590819810354
N          -4.51279041406869    0.32076144517716   -1.52659235898566
C          -5.66638433531328   -0.19476189495523   -2.01858287086378
S          -6.33135190897154   -1.68773929530825   -1.43485166453764
C          -7.65229598732093   -1.49751061573425   -2.54101588594142
N          -8.64170569819227   -2.49069761075223   -2.55958422847165
O          -9.56769301446577   -2.34827987850038   -3.33561028164102
O          -8.49800947862226   -3.42382870413601   -1.79044330134611
C          -7.58022500724702   -0.36154298323738   -3.30130778054715
C          -6.43776021299672    0.41284089087634   -3.01946591509803
C          -6.07654448491546    1.65656511264118   -3.64553872424064
C          -6.85239028435152    2.34274217675420   -4.50430984690310
C          -6.50563218326232    3.59699687499093   -5.13160255495438
C          -5.20912884189976    4.13399646982263   -5.08833380790410
C          -4.95517944160167    5.34014694919678   -5.69199214881174
C          -5.97889835211433    6.04534570429724   -6.34743171622369
C          -7.26147427367771    5.51970124126065   -6.41092650687576
C          -7.50883771642277    4.30198786779240   -5.81150450500052
C          -5.43220574642553    7.28750632549243   -6.84653909458019
C          -4.06598553084705    7.34528445521560   -6.51603892924972
C          -3.63775824872442    6.07771342595558   -5.81086957112187
C          -3.00369637184460    6.35789660944095   -4.44054515617565
C          -3.94837268374568    7.10712326113581   -3.50762571473526
C          -2.71443922296346    5.20878541658118   -6.69812411073919
C          -1.38992710658679    5.84263879405569   -7.10230846803082
C          -3.33012733122963    8.46428300122466   -6.82494086510317
C          -3.93896333182875    9.54101106766347   -7.48811576209515
C          -5.29357907146014    9.45368167949129   -7.83152782069463
C          -6.04312948066842    8.33996655915845   -7.51286846904141
C          -3.12880455909089   10.69602799890406   -7.80235460753203
C          -3.57398970126876   11.91709377901675   -8.14723069109282
C          -2.67226587168197   12.98173929749614   -8.46312903079989
N          -3.07091314049477   14.27461988049348   -8.70321745383498
C          -1.99991561525251   15.06835778055260   -8.98727689855121
C          -0.87312031817561   14.27771209353806   -8.93697283856567
C          -1.30216183690245   12.97030219848223   -8.60476520988137
S           0.12336350637960   11.91840336381674   -8.57013823946410
O           0.38205429504298   11.42030307919256   -7.24156622476478
O           0.07450856720486   10.93180376431331   -9.61896033046225
C           1.24298312308920   13.28440173321510   -9.00079383469465
C           0.54136488033329   14.42433210502835   -9.14599022422117
C           2.62917940848377   13.00607880617612   -9.15429996032277
C           3.65533413584987   13.87762147431869   -9.50217080154704
C           4.87096626915110   13.13904259521041   -9.56378212452745
C           6.15750348146857   13.51991167296660   -9.87356392054413
C           7.15046896931691   12.52910191671439   -9.86091544616948
C           8.51591491281100   12.58613625328516  -10.13189709373319
C           9.07420902748577   11.28440105286289   -9.98217917017777
C           8.05185610515231   10.42135827036237   -9.61625675247900
C           6.83217429392919   11.15742229407866   -9.52973709182053
C           5.55022029560199   10.77571961158063   -9.21722314478546
C           4.55184682146525   11.76667358382495   -9.23332096537984
C           3.18628624732230   11.70259365503133   -8.98490546005275
C          10.45300038491528   10.90120282260848  -10.17393985761628
C          11.44214098289036   11.71581797519800  -10.52984218598488
H          -0.55058204506289    4.05999959538894   -1.19191370633555
H           0.79746207978036    0.79271079172648    2.36062643438550
H           1.72797702474545    5.48058077944574   -0.39328237318193
H          -4.03760429968607   -1.09418516338517   -0.08801337154077
H          -4.16286855503911    1.21389385730296   -1.92220826851779
H          -8.32746378305449   -0.11979507042176   -4.03408806955108
H          -5.11089311708557    2.06078244881034   -3.38009196853313
H          -7.83696331393592    1.96583679649701   -4.74598800054213
H          -4.41433312379980    3.60150863109927   -4.58958810970031
H          -8.05148867260514    6.05061071912652   -6.92044750086622
H          -8.50361044594722    3.88141247023335   -5.85242772807902
H          -2.09983916011217    6.95155476069589   -4.58108036044214
H          -2.71911580091778    5.40770143041286   -3.98303194059996
H          -4.23637653890723    8.06193990139216   -3.94209584337127
H          -3.46231332603748    7.29646147889540   -2.55313282872056
H          -4.85052872803962    6.52718656317289   -3.32500190491626
H          -3.26878906730391    4.94952735386390   -7.60415827742092
H          -2.51608560180229    4.28023360411806   -6.15721338060906
H          -1.54920426083235    6.71490573904666   -7.72943615244939
H          -0.80727222455487    5.12134556792520   -7.67174424090544
H          -0.80616384945960    6.13439984776798   -6.23350952369935
H          -2.29022161114103    8.55043310780896   -6.54889806485185
H          -5.75955707844230   10.26728266096160   -8.36601111406215
H          -7.08937150273745    8.28987367079446   -7.77612540223218
H          -2.05759274426737   10.55443896431262   -7.73226698587388
H          -4.62978307402779   12.14777313182498   -8.19038432034769
H          -4.02734747865854   14.58903808350646   -8.66512379824874
H          -2.11656245561839   16.11163400319660   -9.20210887658906
H           0.97769181951547   15.37573474146835   -9.40557062345610
H           3.55746217623916   14.92921679931424   -9.69789520640904
H           6.40160295020801   14.54340210910288  -10.12258882821019
H           9.06058176807601   13.46981326445591  -10.41023178353742
H           8.15244655328427    9.36778587295052   -9.42789204499210
H           5.30287303199368    9.75299532690831   -8.97066927565961
H           2.61371624701165   10.83492492458283   -8.71499580848620
H          10.65979311042113    9.85125380099452  -10.00675601241170
H          11.28611109142981   12.76558389705520  -10.71009239121217
H          12.44855499008770   11.35682256687746  -10.65756177551134
