97
 SCF done       -185.456308191400          0.000553874856
C          -6.74783351167127   10.00499666678793   -2.21393472062911
C          -5.66054754632032   10.81895069745617   -2.05516984885037
C          -5.22151266286374   11.76241813453311   -3.00048566155444
N          -4.82923738730234   12.52825067662488   -3.76164044795678
C          -4.87254597583724   10.73553883125624   -0.88751898390649
N          -4.21829149199839   10.66233974922628    0.05179904375740
C          -7.61701390463989    9.83555685946495   -3.36736102277953
C          -8.48814066149081    8.68958228094963   -3.01661010518507
C          -8.49695192913710    7.48821524139314   -3.65718319614779
C          -8.24002394326386    7.51892796244484   -5.08105076193084
C          -8.34165550331390   10.15821619170409   -5.70686279590541
C          -7.51909925109310   10.44744741982151   -4.57995720010149
S          -7.52932640289346    9.90067030238560   -7.21980754447253
C          -7.32301593620006    7.03233297979668   -9.25057246896044
C          -7.92214024710287    7.59302217127777   -8.03340100325457
Br         -8.33141552120827    7.24179428623289  -10.79600489473068
C          -8.58821078313024    8.67199043124448   -1.55658657220653
O          -9.46185537063818    8.28086375229262   -0.82340468651190
C          -7.16650279543309    8.98684096171155   -1.25261851415587
C          -6.47549896594989    7.91596280638834   -0.79952327373438
N          -7.16826028797572    6.82842505273450   -0.29256622581309
C          -7.17933971995772    5.57969884118397   -0.85130875186326
S          -5.87572431886242    0.34994822791759   -1.91986861907212
C          -7.45509407202289    0.63673014750930   -1.59385049699473
N          -8.19608460048365   -0.42974295227545   -0.93635693174012
O          -9.34573829700084   -0.18326902162020   -0.60801688451605
O          -7.62834167198368   -1.47792662220935   -0.73528530848125
C          -8.23931829282535    1.76808752746440   -1.96441802622274
C          -6.52925091485860    5.13731115045535   -1.97627501091962
C          -6.28889350512163    5.83028603441811   -3.21310769050282
C          -5.65329592034580    6.96627530460616   -3.60344685925162
C          -5.77643613946220    7.48925102089469   -4.91848038720024
C          -6.95339215552115    7.63603640342397   -5.64593604077000
C          -6.85737951381307    8.10711886141648   -7.04676383056084
C          -8.83474372771407    8.86338267737975   -8.06057918586768
C          -9.97845206077746    8.69863593474016   -7.15744248249653
S          -9.48550033260448    8.82257161576605   -5.48031734240980
C         -11.22966161977328    8.19237175102743   -7.36752150314550
C         -11.97300937460953    8.00439927454579   -8.56635207646960
C         -13.19410372512111    7.45497575724930   -8.36650059677871
C         -13.49900961510591    7.11856395747244   -7.00802268712476
S         -12.15545215365163    7.62326603082839   -5.98161304305427
C         -14.58041442817027    6.38949843007508   -6.62457481705226
C         -14.94012760895571    5.78734820847864   -5.37294203809670
C         -14.79716314863755    6.17432987403027   -4.08949884280964
C         -14.32728886746998    7.50246456725986   -3.61428660186617
C         -15.32904179174192    5.23809352381690   -3.02043620796832
N         -14.55237326406724    5.11747074602707   -1.80130789164279
C         -13.23948275397782    4.88908166212275   -1.69988925078762
C         -12.39169145456480    4.85269259848655   -2.78132202492252
C         -11.01408250872185    4.67875993225202   -2.87483038242541
C          -9.88213464624667    4.57676842231155   -2.06273720691583
C          -9.57224383052401    5.00555174165302   -0.73704125868166
C         -10.32474911565674    5.87828562960768    0.02443136733282
C          -9.91310804249824    6.20374910454804    1.33341473246075
N          -9.57787237741669    6.45017648448197    2.40314904118055
C         -11.42948074192886    6.58116217811555   -0.46091884653162
N         -12.34620541897043    7.11817532645210   -0.90456577211472
C          -8.19808151602198    4.65860803602257   -0.24769330042468
C          -7.82461383736503    3.02891681323844   -2.19264097983033
C          -8.78271445967444    3.96408345946669   -2.85701628890916
O          -8.66831373599273    4.13411857111544   -4.05700053273523
C          -6.44659156383462    3.60953011575115   -2.02287385892568
C          -5.80519877017004    3.16019052938236   -0.73244431118893
C          -6.50917192084530    3.15019171301195    0.45227397851878
C          -7.87637701437290    3.59522088344255    0.50189898195493
S          -5.58797769170114    2.47487434322266    1.75293805834869
C          -4.24323858970456    2.25230915445835    0.68642153929958
C          -4.49868741022523    2.64892599567289   -0.59298894643659
Br         -2.64202935774446    1.52106460972408    1.32389778470692
H          -8.89979131483383    6.61053967064062   -3.18070452842865
H          -6.77116413446974   11.21281868392924   -4.73123018848514
H          -8.45261375169706    6.74548113913977   -7.56575833697321
H          -5.40336865331660    7.81160315883459   -0.87925731944395
H          -8.00087441413788    7.06876815947776    0.23941470617497
H          -9.30089522504063    1.56142724892964   -2.05723083161316
H          -6.72637217067295    5.26898217303071   -4.03711184960012
H          -4.91985789591792    7.44269247323001   -2.96544449368962
H          -4.87080417880347    7.85402709592994   -5.38464550602337
H          -5.84304113617165    8.07640431409703   -7.43776275618161
H          -9.07742721940514    9.23014897857448   -9.05737027147061
H         -11.57749386762328    8.28938645370633   -9.52492857290709
H         -13.89674669750855    7.24638333410190   -9.15425132949373
H         -15.22622273102797    6.09155541196690   -7.44413442867653
H         -15.45141423694749    4.84084074963253   -5.52887754869211
H         -14.24082359940437    8.20719382935924   -4.43448936245558
H         -13.36400468154987    7.42364250108928   -3.10963885650563
H         -15.03068647804050    7.89672515600623   -2.88212735629922
H         -15.46137458970136    4.23775046202133   -3.45565839676078
H         -16.31867628037233    5.60062223203268   -2.72274204003954
H         -15.08524851683026    5.10546287117351   -0.94678331659684
H         -12.89651124856227    4.63754112294964   -0.70723038750353
H         -12.87020667809334    4.95966260696391   -3.74557107771325
H         -10.72533065272650    4.51699826186705   -3.91235736908818
H          -5.81914010494987    3.29367482068948   -2.86178458434059
H          -8.62182098951289    2.99849141011474    1.00745633662092
H          -3.78658087433858    2.56765764832729   -1.39336181690448
