97
 SCF done       -184.926450882314          0.000775968016
C          -8.62173406625467    1.35565887500689   -8.65668691795760
C          -8.02167488521117    0.20983860657073   -8.18062761123899
C          -6.79531595186942   -0.29481556276605   -8.65425784147263
N          -5.80153956973221   -0.76232492794776   -8.99293400173448
C          -8.52347575894657   -0.62307875114328   -7.16205741723129
N          -8.85012720816913   -1.35529076111840   -6.33778503662347
C          -8.06991230345703    2.21901264256938   -9.70026401215080
C          -8.96783348857301    3.29119604089551   -9.92283886174968
C          -8.72027296293584    4.28826613713219  -10.83285112398624
C          -7.52479196020493    4.22790255836828  -11.55877201520086
C          -6.63554200909482    3.15302456797089  -11.33110471558760
C          -6.88851332431832    2.14136421944148  -10.41129070509420
S          -5.21605408433808    3.27519846558494  -12.32670664921168
C          -5.82839383569281    4.75165682211862  -13.02326070209914
C          -7.03368871699283    5.13341450452655  -12.53928079564215
Br         -4.81739021387057    5.65007158623539  -14.32377086111625
C         -10.13194410107197    3.14395637643387   -9.02223354692737
O         -11.09206557867780    3.88792810715094   -8.95928688757271
C          -9.86755328699767    1.93005782486347   -8.22829109318381
C         -10.67047423867893    1.47424908427731   -7.19676355812885
C         -11.83192696566933    2.08442164044172   -6.74857987591964
C         -12.49969481591414    1.65459164435034   -5.60889679495498
C         -13.59509151703405    2.26668033327121   -4.97533754711013
C         -13.93898575270483    1.69216702978354   -3.77639490508018
C         -13.13933613420988    0.59344052874187   -3.43445003269104
S         -11.96051820716915    0.27539253420950   -4.67838310306644
C         -13.11617204819178   -0.13812974088924   -2.24220861536737
C         -13.74340121640047    0.14986737370110   -1.02505851185670
C         -13.32761611884978   -0.65873463900589    0.00731363369344
C         -12.38607721902222   -1.62829247185271   -0.36415386519166
S         -12.07041377770238   -1.52044327353768   -2.07884077617962
C         -11.67714316638091   -2.46300496740858    0.50404032530964
C         -10.78383634769708   -3.45434595642672    0.16863264090598
C          -9.89950292391683   -4.07771711001804    1.08434721422273
C          -9.14263133583216   -5.00827590040309    0.42016147361032
C          -9.56223521933386   -5.09094930259814   -0.93671977420592
C         -10.57723844528553   -4.04673140717305   -1.20730905894478
N          -8.96869553352777   -6.03913622602648   -1.62582353485679
C          -8.05247059520621   -6.61565425355318   -0.81495818153694
C          -8.03858880196755   -5.98540875939796    0.57385577736890
C          -7.26645078496220   -7.65160301810323   -1.26370435084772
C          -6.13333226375656   -8.17606868795858   -0.64168629909678
C          -5.36349240313808   -9.25745095416471   -1.09522882441933
C          -4.20031023292120   -9.45942339968740   -0.39072451523245
C          -3.99709596703243   -8.52245663997524    0.62971396964575
S          -5.36324808299219   -7.44595713327436    0.74613097886775
C          -2.85282293093247   -8.30060379699659    1.39909273878614
C          -1.67922184270118   -9.06570445293730    1.46771441364115
C          -0.68438056942906   -8.47682639022351    2.20632767872356
C          -1.02867783566354   -7.21691461473505    2.72907990837974
S          -2.68572291874858   -6.83483266596071    2.32944259061952
C          -0.19525247266142   -6.32463909441828    3.38931827692522
C          -0.59557429862508   -5.03954479821204    3.72207933700910
C           0.15048308230560   -3.99241753858198    4.22743893607656
C           1.46616883617487   -3.90956472298176    4.79324944710036
C           2.14692702436878   -4.89576253801372    5.47147916200329
C           3.42560495562412   -4.72255221257444    6.03402373754090
N           4.47397504318085   -4.64327708001008    6.49691533434800
C           1.60958964705366   -6.15930650444831    5.78245707519460
N           1.21204708446825   -7.18937869999395    6.09976211427803
C           1.89466660593070   -2.51241112448894    4.69708107561510
C           0.79251404436443   -1.72892789887939    4.27332592059469
C          -0.36284654877739   -2.61761152513698    4.03140022672086
O          -1.48437392441610   -2.29871356874337    3.69701330851555
C           0.87392316286987   -0.36997199793269    4.09945206506656
C           2.10702380021216    0.24596760827064    4.34323291873570
C           3.20329798786975   -0.54546325333353    4.75654282735738
C           3.11765720821705   -1.92140782702440    4.94257685432956
S           4.63392212483757    0.41431342577108    4.98468674289711
C           3.74972666152695    1.84698129113507    4.53018337302061
C           2.45104762796105    1.62063340962487    4.22239488081708
Br          4.62665659407301    3.50527484107901    4.49866484458806
H          -9.42285182232784    5.09393081843251  -10.97781074351703
H          -6.17587384081657    1.34572643271671  -10.27330154338781
H          -7.55575654034249    6.01731708460277  -12.85744111906117
H         -10.34911213078793    0.58954542951708   -6.66072751308541
H         -12.20540891676469    2.95910716838547   -7.26089644406361
H         -14.08334836561474    3.12579610904246   -5.39949255834457
H         -14.73811905077012    2.03992811935036   -3.14652677682590
H         -14.44120216849990    0.95979724413905   -0.91381105278917
H         -13.67039538043145   -0.56136577423855    1.02240941542138
H         -11.81857946812670   -2.26011068112240    1.55881301177524
H          -9.83389885779297   -3.81942601381895    2.12646558834124
H         -11.50000173013362   -4.43554073074672   -1.63888732155960
H         -10.17871248590744   -3.31144263571666   -1.91105477482057
H          -7.08803424873693   -5.48312178191049    0.77045162032678
H          -8.19135560508581   -6.72683839099641    1.35867480736699
H          -7.52286121175210   -8.06287474267234   -2.23056179663488
H          -5.66881529025166   -9.85239516039501   -1.93751312634965
H          -3.48168663251560  -10.22534177211607   -0.61935974243463
H          -1.58478409254270  -10.01727709726399    0.97625118103509
H           0.28833927811775   -8.90591697563223    2.36737379255471
H           0.81971706794387   -6.64904116700026    3.56173647205603
H          -1.60511669422142   -4.75382770264570    3.43690062734228
H           0.01627851136173    0.20126115652459    3.78025038807965
H           3.98397956699739   -2.48221512543533    5.25195769040165
H           1.76272538039988    2.38858425946138    3.91971103721806
