100
 SCF done       -184.982513233603          0.000539598384
C          -3.04331485924512   -1.42386782316632    0.85508728413240
C          -3.69506325713393   -2.61684695287649    0.67125448897285
C          -3.07360213128263   -3.88034195275714    0.75495543001272
N          -2.62915972391253   -4.93773490467846    0.80783471723559
C          -5.06578092945355   -2.77150247574931    0.37737207324956
N          -6.16877890968456   -2.98882952409037    0.14115648397958
C          -1.62462238356895   -1.28064393541647    1.16650938758847
C          -1.32330789088930    0.09631160543504    1.30195760393821
C          -0.06221743845528    0.55496776827816    1.59507009042390
C           0.95453705243775   -0.39097741297828    1.76032386608928
C           0.64555585809028   -1.76496253104955    1.62138826707668
C          -0.63057606235237   -2.22847136697925    1.32727145755380
S           2.04810993229881   -2.76284780158528    1.86130238169801
C           3.01647205640257   -1.34005693999049    2.14108531211386
C           2.32779854988126   -0.17693238022433    2.05992755864182
Br          4.84583197189005   -1.52432900763959    2.51201814744570
C          -2.54668116057249    0.89109898817963    1.07529883576489
O          -2.63207360292910    2.10153820425021    1.12338994976788
C          -3.61518992624885   -0.09281325865487    0.78263692449093
C          -4.91080513661282    0.22616558919976    0.48081199044874
C          -5.42185414646904    1.54031835489235    0.39976410887515
C          -6.71807397930909    1.77745966264648    0.07242967659458
C          -7.34381112282491    3.06131294152604   -0.06372801886436
C          -6.66289753910768    4.26555915747077    0.19333751500964
C          -7.31359714871151    5.45963251263928    0.01859051954740
C          -8.65359227008930    5.49360270261522   -0.41059704037993
C          -9.34389952993394    4.31230495762125   -0.65381074556905
C          -8.68672979785204    3.11432363967831   -0.47712352810082
C          -9.05602196225021    6.87347289605704   -0.54581271409934
C          -7.97049260743994    7.69768109297559   -0.19211933922587
C          -6.79481271296343    6.86155599332048    0.25960897244253
C          -6.54086935358856    6.99384734342619    1.78044011093492
C          -6.18328605335974    8.38885689321001    2.27545946506813
C          -5.52628781501714    7.15630160244516   -0.55491553102734
C          -5.72282212100920    6.90678595424918   -2.04606892280455
C          -8.07549963068699    9.06144944009205   -0.31400228709769
C          -9.27459746132191    9.63757669980331   -0.76899589982605
C         -10.35518777974750    8.79987937016904   -1.08379948488340
C         -10.25264948332717    7.42934931418967   -0.98060884234425
C          -9.33631187198258   11.07207488132859   -0.88368131285145
C         -10.30487058217022   11.77831426517166   -1.50847405178682
C         -10.34238264932290   13.19607357719203   -1.58860952511680
S         -11.59086719090710   13.96719784163474   -2.51059399621287
C         -11.00908328343211   15.56287386813878   -2.15483622765242
C          -9.87069115030333   15.48283428780736   -1.34536358173618
C          -9.50158746012626   14.15404628251208   -1.01723615139976
O          -8.45913493210147   13.83887491022734   -0.25013689322618
C          -9.12527125911848   16.59832139014350   -0.77173860015436
O          -8.12704409147318   16.43695257375440   -0.08938633799358
O          -9.60634131262086   17.81078103432807   -1.03012377641146
C         -11.56852129885433   16.71044073997988   -2.75603661672383
C         -12.81417434865729   16.87576086645610   -3.28399069022344
C         -14.04209566599852   16.12592096758253   -3.13693606823034
C         -14.43866333436734   15.44152429913099   -2.01675021588262
C         -15.69063029211107   14.80987848040599   -1.88551782799184
N         -16.69198369487324   14.26686637603606   -1.74334338867763
C         -13.66363087001002   15.38407515433855   -0.84040086054992
N         -13.07751434311879   15.35485790871497    0.14615298989805
C         -14.90165736759717   16.47935737356660   -4.26098916946855
C         -14.33154240193801   17.58947603232803   -4.93503423280018
C         -13.04621374653157   17.94064552328141   -4.29674322706753
O         -12.30850508416089   18.86016527703427   -4.56624663840795
C         -14.93632000614269   18.18261921434456   -6.01640238184156
C         -16.15111863206115   17.64816932083802   -6.45950841348669
C         -16.70320286049219   16.53074948234451   -5.78798218257393
C         -16.09764525844704   15.93611152079484   -4.68746077752743
S         -18.20047829525075   16.02701961725789   -6.51000847862388
C         -18.07047174009618   17.30926746795535   -7.68474275234736
C         -16.96223598185580   18.07508801129810   -7.54647604309398
Br        -19.40788002100625   17.51323333650644   -8.98317811500485
H           0.13392685829852    1.61130162585958    1.69230009940720
H          -0.81259108458953   -3.28562560698639    1.23175362735311
H           2.76832414820474    0.79262138298259    2.20444864111503
H          -5.60930548417118   -0.57514428130233    0.27636842706601
H          -4.73733745957146    2.34945323982314    0.59822123290602
H          -7.35685167286711    0.92240677024094   -0.12079050198062
H          -5.63543286891580    4.24525000744716    0.52013580297865
H         -10.37356559357124    4.33205462892073   -0.97740203406413
H          -9.20769998245573    2.18677383977873   -0.66628938175597
H          -5.73425018356798    6.30524730755326    2.04115234867460
H          -7.44185396323926    6.65830143323508    2.30110729944003
H          -5.29855350467746    8.77360493686245    1.77544866214563
H          -5.97401665463143    8.34670834625862    3.34215067769192
H          -7.00749351414061    9.07981213052482    2.12201186188344
H          -4.71528610375585    6.52629388836965   -0.18459812456444
H          -5.23913791343835    8.19747378107400   -0.40446630014190
H          -5.97745638430419    5.86594419892127   -2.23365715625976
H          -4.80904090313210    7.13926220638815   -2.58781125656638
H          -6.52323277383182    7.53116805173693   -2.43770611867396
H          -7.24056813044255    9.70840673121042   -0.09090663309645
H         -11.28816658334602    9.23400696773508   -1.40733648020863
H         -11.08908281580006    6.79732680534901   -1.23879401552910
H          -8.51600767488200   11.61459448316725   -0.43678423581206
H         -11.12186439428596   11.27459755804135   -2.00641553166665
H          -8.03653471435319   14.68204952746462    0.04147379263744
H          -9.06224836529457   18.48558769709310   -0.59220043578824
H         -10.89554062312307   17.54957553367679   -2.89721024035553
H         -14.48795623884155   19.03262138194520   -6.50623066988950
H         -16.54949147613474   15.08333181177608   -4.20809871109651
H         -16.72440241094758   18.90692731516636   -8.18396936583547
