109
 SCF done       -195.492483119671          0.000449226850
C          -7.61568015974474   -1.88529902237056   -0.65819512330323
C          -7.75878347148447   -3.05536037081790   -1.35852314914313
C          -7.22196042529107   -4.29308398056467   -0.95296834554227
N          -6.81021038448263   -5.32593210782154   -0.66691262173700
C          -8.47195518775680   -3.16526921472901   -2.56886038223576
N          -9.04336725142696   -3.29729132403073   -3.55578448645328
C          -6.87050670951560   -1.71926592903181    0.58935386458952
C          -6.95323317803936   -0.36150504953214    0.99549871598158
C          -6.32878014389827    0.11705257725704    2.12198095517008
C          -5.57633901306423   -0.78389284426487    2.88255445839644
C          -5.50547496993874   -2.13845677942770    2.47646175957876
C          -6.15203329185870   -2.62486829836401    1.34512018419635
S          -4.51687828902288   -3.07750619592925    3.55098053600149
C          -4.21785371543962   -1.65984828015498    4.52048155281011
C          -4.82624514474677   -0.53840716386560    4.06358570716502
Br         -3.13539951522639   -1.78939229777077    6.04631161986739
C          -7.78149065083100    0.36775603566077    0.03182191526671
O          -8.10513135838176    1.55462051689712    0.08141392593439
C          -8.16298283903097   -0.59462363308164   -1.00055107849753
C          -8.94470372867087   -0.22274651382430   -2.07215234829109
N          -9.37179379717517    1.03786455504840   -2.15828181433816
C         -10.16500201720246    1.60886149798835   -3.09727063275281
S         -10.71205047834459    0.75460913388873   -4.50437955115850
C         -11.52751544172071    2.19258896576007   -5.02441969920186
N         -12.24223718277730    2.14914764241151   -6.22766654197701
O         -12.80428239125466    3.16883833239523   -6.58513912608808
O         -12.24727021000461    1.09008912805424   -6.82960427049679
C         -11.38583379540535    3.25314340638948   -4.16727222676817
C         -10.60615153377232    2.93926231169129   -3.03935185569785
C         -10.26176919633543    3.81681612722007   -1.95580351062884
C         -10.44181831420665    5.15271731536087   -1.93780737067108
N          -9.94611241633973    5.98168517551840   -0.96755861509516
C          -9.12844087012016    5.56548540284654    0.09074226258382
C          -9.35105383379866    5.89171817771410    1.39519665972251
S          -8.14439166805002    5.26634085168691    2.43940992516218
C          -7.30675707900267    4.56014665398331    1.11413730386352
C          -7.92131525769470    4.80012675899879   -0.08033808585343
N          -7.47013762379261    4.42391190714247   -1.32507662707386
C          -6.58544128743704    3.41942862785275   -1.60897402181971
C          -6.36335321692933    3.00186224179646   -2.86570519421532
C          -5.40838429146732    2.00189815637565   -3.28832344085625
C          -4.84019608003759    1.06874057933206   -2.40767286218618
C          -3.87003692832311    0.20329361105759   -2.85765202267991
C          -3.48539711078876    0.21989366662172   -4.21052322787736
C          -4.07710338268917    1.09982373739020   -5.10403130849895
C          -5.02869508498161    1.98010499645102   -4.63605132131738
C          -2.46027213891541   -0.77568394842283   -4.41931920603346
C          -2.20495476542827   -1.41997358445266   -3.19692552772332
C          -3.12512632040296   -0.89127459069987   -2.11230552436565
C          -2.26907711727102   -0.37806973600653   -0.93870262685420
C          -3.02191715980834    0.12758868678126    0.28596172806289
C          -4.16628666525662   -1.95647595289828   -1.70571166894101
C          -3.61052548865505   -3.20674590893901   -1.03758759016463
C          -1.21280561964019   -2.36466149157025   -3.10684492221370
C          -0.48665723646195   -2.72992546181756   -4.25273472628751
C          -0.77614879249155   -2.09259853283469   -5.46813702775790
C          -1.74420252708289   -1.11526796204099   -5.55871849662478
C           0.53939988829333   -3.74004584865842   -4.23043166738833
C           0.92118972210550   -4.47623649607709   -3.16448313064769
C           1.92365946162284   -5.47877030591949   -3.19033823225036
S           2.79093663107978   -5.90709584856329   -4.62584712263038
C           3.70963350792705   -7.10519375694518   -3.82074716160425
C           3.38378720200294   -7.19648205199821   -2.48836040355574
C           2.35788288075807   -6.26436393707246   -2.11451301456716
C           1.92262383749878   -6.23456619962293   -0.78370761647322
C           2.45365565911389   -7.07647978941058    0.16549410217460
C           1.90218912955820   -6.93133806404582    1.54583420917583
O           1.05800075147982   -6.10938561445645    1.80189168582036
O           2.37244351371457   -7.74097225878411    2.49712416524833
C           3.47246964733717   -8.00678988521375   -0.21970360255890
O           3.99481435218722   -8.84793104226856    0.73298920943045
C           3.92164205167347   -8.06132180576282   -1.50718271822977
H          -6.41532430932615    1.15345558994250    2.40881169574558
H          -6.07520517654185   -3.66712627195829    1.08635176905875
H          -4.74886481394549    0.42181756200487    4.53966226221254
H          -9.24027880174377   -0.91281599580710   -2.85137490933302
H          -9.03390899649601    1.63298985666542   -1.37764634261635
H         -11.84742791898927    4.20395927770011   -4.35865286735353
H          -9.79072765979367    3.36320281490896   -1.09704796976608
H         -10.96362670450602    5.66878127290050   -2.73104325310047
H         -10.42744889375647    6.85680287942599   -0.82376892057597
H         -10.16274915901878    6.46389660433891    1.79790021582334
H          -6.39740055312308    4.02736096423220    1.29558970902245
H          -7.98062656305584    4.80077337993496   -2.11083804897837
H          -6.07884300472845    2.99862099017218   -0.75688310063158
H          -6.89415802141040    3.50493511547706   -3.66657408157590
H          -5.18371778777490    1.03675965231255   -1.38474808693028
H          -3.79497104586776    1.09861847701745   -6.14617108643811
H          -5.48676764249964    2.68314633211087   -5.31733884846527
H          -1.63621339585335    0.42680077683660   -1.32205914279842
H          -1.60814238488764   -1.18804553841122   -0.62602210776314
H          -3.60291073860470    1.01507943019403    0.05348083057088
H          -2.30662524801240    0.39084049261469    1.06305567342725
H          -3.68740608706509   -0.63356779312064    0.68491791360151
H          -4.70290423602077   -2.25213521831067   -2.61251664944214
H          -4.88974338059355   -1.47872464749369   -1.04247463463907
H          -2.94549475937699   -3.73872693769812   -1.71101559466531
H          -4.42641191390785   -3.88006706120023   -0.78517817253877
H          -3.07256031392699   -2.96630147360523   -0.12425563422233
H          -0.97535279188374   -2.82340377769028   -2.16086836066936
H          -0.21598805222641   -2.37317351132079   -6.34879421152213
H          -1.93950240423603   -0.62119946364027   -6.49871356297599
H           1.03577382073094   -3.92260384542938   -5.17670819076283
H           0.45411597341639   -4.33103178950436   -2.20144798828552
H           4.43437187540383   -7.67388657962361   -4.36760526208711
H           1.15600726286444   -5.54668505650125   -0.46195405233027
H           3.04953636952567   -8.34667125634373    2.15034888462382
H           4.66545129946100   -9.41435693075376    0.33255362324498
H           4.69248167238224   -8.76582601964710   -1.78986507310182
