104
 SCF done       -194.374063162115          0.000460119552
C          -7.40404448269530    8.01612601578521    4.44038957227208
C          -6.80225274629285    7.90904467212498    5.66927000264348
C          -7.31886401140774    8.46416708565287    6.85641846513998
N          -7.69480920221971    8.89240887744836    7.85340737879435
C          -5.58609432444813    7.23383380130906    5.89324708051550
N          -4.59647853512601    6.69721497118130    6.11933976834197
C          -8.65793368868009    8.71353414666320    4.16081946357668
C          -8.93537123220236    8.62243096912426    2.77216927106679
C         -10.05483327013428    9.17645487083139    2.20086049665235
C         -10.94750535446721    9.85280187502887    3.03957817521160
C         -10.66325599730236    9.93970795227387    4.42249028939006
C          -9.52854968196831    9.37995489496658    5.00026478154503
S         -11.89872890665553   10.81364257941717    5.27482135887305
C         -12.76872824342523   11.04816612727108    3.78195450700138
C         -12.16660562145998   10.50046270088680    2.69967255708224
Br        -14.39062643241938   11.99022609978253    3.79284306154242
C          -7.86197095068396    7.85782336230172    2.12585054990640
O          -7.75949415488131    7.57699345337236    0.93397399102790
C          -6.92998333186545    7.47855427162653    3.18899738352733
C          -5.82398702370682    6.70084669450174    2.92769923572591
N          -5.57701128273313    6.30075400641081    1.67609729318151
C          -4.59034768786720    5.48025310786363    1.24535466829397
S          -3.44280211532282    4.76558432091795    2.33576401476178
C          -2.74008879205927    3.91706022073326    0.99571830562932
N          -1.64820467662982    3.07615843706399    1.24960746859825
O          -1.17189972551966    2.47178256072294    0.30659727437646
O          -1.25972012533087    3.01057553895225    2.40197099971717
C          -3.34841800452507    4.17189638262311   -0.20307407556885
C          -4.42049029075865    5.08006942816527   -0.09056892239675
C          -5.23561210618998    5.55693727703969   -1.16601307476406
C          -5.29322470255065    5.00481135616111   -2.40094391606349
C          -6.11237092119770    5.50332841673123   -3.44288241866148
S          -6.94322577897063    7.02271040717123   -3.30266225017027
C          -7.69400444954096    6.83161119965328   -4.86706690405854
C          -7.32048121097789    5.61361439992627   -5.44252009475420
C          -6.40604092178989    4.90016735094398   -4.66250347138943
C          -5.78918715541450    3.60478729599482   -5.09801851180383
C          -5.92123812351303    3.40190360994679   -6.60943425217943
C          -4.89844129949715    4.24993283198472   -7.35718876614073
F          -4.89114423203936    5.54826161837519   -7.03337629529506
F          -3.64910365474702    3.80560810510040   -7.12746780944246
F          -5.07776302353227    4.19367197991658   -8.68767371885733
C          -7.35373770337089    3.68735687864983   -7.05955532259647
C          -7.78424346498922    5.12792974056720   -6.78082931060920
C          -8.47913084809215    7.90936089698955   -5.32171063386096
C          -9.29433273640161    7.97374606524842   -6.41992731773970
C          -9.96971204412634    9.13670591026887   -6.80158868731414
C         -10.89849226929086    9.18755500355933   -7.81894010978686
C         -11.55915496954047   10.32800822487016   -8.32358460746386
C         -12.45865940882819   10.06372215549992   -9.31704223702034
C         -12.57708458071966    8.69630962826574   -9.63043671395938
S         -11.46823643992751    7.75440864484928   -8.65716140719144
C         -13.45411185916728    8.09459698911900  -10.51815838794046
C         -14.36633932000137    8.71430297179079  -11.39678180919084
C         -15.12914246820030    7.83582184917922  -12.10696627174194
C         -14.88169059552230    6.47039387960961  -11.82101486158380
S         -13.59114098978955    6.35759414197419  -10.63192877523926
C         -15.57027909546980    5.41406481043281  -12.36347179105946
C         -15.46176016318018    4.03773765147102  -12.08266622601596
C         -16.26927273525190    3.05145586388504  -12.66292209004753
C         -15.92053459811693    1.79387272635102  -12.11778972570665
C         -16.41784807006964    0.52601259060113  -12.33144784136871
C         -15.85230234241863   -0.52940220831382  -11.59971941796825
C         -16.13043682403658   -1.88918849727518  -11.57932764418912
C         -15.25917745870213   -2.52998536247249  -10.64359116939174
C         -14.44159726497238   -1.56252757862693  -10.08726245876714
C         -14.77510261491850   -0.29339124835884  -10.65322630421051
C         -14.27478713510249    0.96224197775802  -10.43936731501036
C         -14.84541207378459    2.02793444174410  -11.16882347946622
C         -14.57667731174758    3.38188246494854  -11.15867217962073
C         -15.22105721163524   -3.93510731306423  -10.31731461213595
C         -16.00593403967519   -4.87338160324874  -10.84015630228486
H         -10.23829850040653    9.08983997177030    1.14143598357917
H          -9.35879613876085    9.47132528355520    6.05994009573200
H         -12.56478158878880   10.54903630729344    1.70266510996256
H          -5.13738495739002    6.38214448528716    3.70097503336381
H          -6.27634498015575    6.64059499620177    0.98839667792551
H          -3.00831935946070    3.72815634783244   -1.12041345724172
H          -5.86454398149352    6.41501291047935   -0.96914229121980
H          -4.72305709031914    4.11382588216087   -2.62074644550207
H          -6.28621684428375    2.77255905305651   -4.59055462127816
H          -4.73395749231326    3.57998697835609   -4.81568938902853
H          -5.66071283403759    2.36765316102182   -6.86218683212853
H          -8.00543835561514    3.00223465159830   -6.51373237872982
H          -7.46053888938424    3.47674253211899   -8.12482091704112
H          -8.87398115906823    5.16763055043121   -6.83090338566080
H          -7.39526793058193    5.79830380032861   -7.55341559656998
H          -8.42425375693332    8.79553750246655   -4.70003901880964
H          -9.45915545832601    7.10436463148090   -7.03655476703544
H          -9.75628031383050   10.05951877055430   -6.27859429627554
H         -11.34840107612400   11.31140035069622   -7.94174343304789
H         -13.04915604724223   10.81371438488386   -9.81212640151869
H         -14.43389944856830    9.78365511345474  -11.48546964066828
H         -15.87836777132942    8.12664923822739  -12.82243801517420
H         -16.32894607037441    5.68132200115866  -13.09024850834936
H         -17.03572205108121    3.22269674938501  -13.39635173309235
H         -17.21926949083441    0.34329580655657  -13.03336204729970
H         -16.87973831241275   -2.38347464992003  -12.16986109029586
H         -13.67840193000605   -1.72670003413412   -9.34841128656869
H         -13.47546674784171    1.14867915778929   -9.73593325341091
H         -13.83142405417898    3.86734841925073  -10.55714839243236
H         -14.47776116326109   -4.21039992667698   -9.57911585780774
H         -16.75894001514648   -4.64894392287174  -11.57591605420019
H         -15.92096008026750   -5.90544747361873  -10.54734171255576
