112
 SCF done       -199.751660076514          0.000728077042
C          -8.42416766005356    3.44173153621155    2.74041660739669
C          -7.11659668169103    3.03020529964604    2.84498679120940
C          -6.53049985277573    2.54244098350360    4.02840034865584
N          -6.00586193353561    2.14219825325613    4.96811887321810
C          -6.24102830109176    2.99162644445082    1.74486196150096
N          -5.53162176326073    2.91503193566565    0.84312325522272
C          -9.44209252631014    3.36037998372915    3.78486725513452
C         -10.69923163806065    3.70924607679159    3.22573448890429
C         -11.85804956906443    3.71426071975583    3.96146962583695
C         -11.77362111233637    3.36648620728143    5.31476394421251
C         -10.51561911468662    3.02480147877659    5.86355480102533
C          -9.34235075341970    3.01267009883372    5.11716893520283
S         -10.63970964718644    2.63460847462764    7.55200447226362
C         -12.35609129208259    2.93568892134574    7.49942376739478
C         -12.81539324868791    3.30516841005485    6.28010812827952
Br        -13.38136865688902    2.72586164500504    9.05607742603357
C         -10.50827327502871    4.05573036371848    1.80648734216414
O         -11.36147363568739    4.40208892922739    0.99747320738247
C          -9.07410206511629    3.93674801741795    1.55675513811004
C          -8.49805504935181    4.34816273224180    0.37462839333471
N          -9.24015610715959    4.72318483534943   -0.66111875274979
C          -8.81499050343485    5.24766140244318   -1.86909166379313
C          -9.68227246531541    5.92280792324974   -2.68557512851041
S          -8.92139429078131    6.53578360623707   -4.08705087503142
C          -7.42000865144017    5.85455875428305   -3.61293982062453
C          -7.48513191807182    5.19100056091518   -2.41875096119447
N          -6.42485980949414    4.51357889331764   -1.83971678478071
C          -5.10016640285852    4.88739790473287   -1.89914022396463
C          -4.65770895078864    6.12874984547259   -2.14620128132800
C          -3.27001554372574    6.53429262872246   -2.17567174608840
C          -2.22286307383129    5.62124297072533   -2.36915915925777
C          -0.92489918406745    6.07091214649881   -2.40808180260298
C          -0.63705132123491    7.43124464733756   -2.19014728645046
C          -1.66428044578497    8.34575624039000   -2.00403794679566
C          -2.96651167254781    7.89334458480003   -2.02158019058315
C           0.79503419344443    7.60926767603768   -2.18692682266772
C           1.40206720101280    6.36371665821868   -2.43102399785186
C           0.35104190130665    5.29302124107344   -2.64514132819986
C           0.51203290320747    4.12474397211849   -1.66172105127038
C           0.49290420415075    4.58527263209504   -0.20861654783426
C           0.47672892721728    4.82635253164340   -4.11466330222315
C          -0.60345130430811    3.87304358791329   -4.60868221811644
C           2.76709566722431    6.24804454279756   -2.48942611002935
C           3.56973003726233    7.38326703719157   -2.27672003025278
C           2.94602845826541    8.61062352002919   -1.99330246651965
C           1.57470677514981    8.73671200002081   -1.96026402744340
C           5.00440051586177    7.35161424996098   -2.34522347769541
C           5.74716047185692    6.36037629537883   -2.89425433684194
C           7.16570530996427    6.32898813090844   -3.02301544111103
C           8.08734007696206    7.20976425967182   -2.40580843202103
C           9.50512079100563    7.14294674140510   -2.67459729271181
N          10.33706507404187    8.00585736794192   -2.08518950122299
C           9.86286615834464    8.90797625871343   -1.25289188730038
C           8.46596353373624    8.95455623523558   -0.95977035070955
N           7.63084900559712    8.12026565025046   -1.53077277222807
C           7.95904480229730    9.90701200373075   -0.04157303479204
N           7.57428245935569   10.69464724183110    0.69655019701566
C          10.75494353703510    9.82287636031194   -0.64685312727384
N          11.45157944148189   10.58100401428302   -0.14224271308737
C          10.07811184071067    6.19093813471620   -3.57654823661217
C           9.15651051816536    5.27359112439118   -4.13853317687949
C           7.74386448907714    5.34039689520832   -3.85643956982424
N           7.06869594788056    4.38043936644216   -4.48940559226999
S           8.09342437145740    3.48330914567622   -5.34387298750682
N           9.44604058734559    4.27082058608694   -4.95860672654187
C          11.45527685847685    6.25578250585480   -3.82810735763357
C          12.27074951276278    5.57210944481256   -4.70332786427243
C          13.65687340032495    5.85964732992556   -4.81639409199786
C          14.31076466380532    5.14924494258517   -5.77402649062282
C          13.46998180440552    4.25309719031033   -6.47160618551035
S          11.83157503253316    4.32697431790970   -5.84846676261666
C          13.81417632015760    3.41437830283161   -7.51140695589722
C          15.09193130548405    3.26861996897604   -8.11710885327274
C          15.12927240081876    2.37729241514648   -9.13395531417020
C          13.87252481592866    1.74406874989519   -9.40926847362382
S          12.65077498711373    2.36358797887283   -8.28491148425393
C          13.60253748024698    0.82789406858897  -10.35057093783249
H         -12.80133614993781    3.98142573877898    3.51139701845947
H          -8.40560717530581    2.74737799212768    5.57880393950394
H         -13.84565022339219    3.52630353968955    6.06879920692418
H          -7.42522705100834    4.42050783756602    0.27917588449038
H         -10.25141999626247    4.73216547110734   -0.47716038808457
H         -10.72267153934915    6.10749919376132   -2.50786229184463
H          -6.56233776155144    5.96471713745913   -4.24410638831330
H          -6.61097348995787    3.60313858108167   -1.44724542958153
H          -4.42363157551815    4.08743124840298   -1.63922437290376
H          -5.37947305837292    6.92037972888377   -2.29869218125744
H          -2.44765749975039    4.57376513201034   -2.49264302244973
H          -1.44856365468055    9.39254003822916   -1.84954631933902
H          -3.77767740643123    8.59500667231661   -1.88617331198912
H           1.45565865574830    3.61588141056116   -1.87010977123234
H          -0.29723760168115    3.41012019854124   -1.81744907419116
H           1.30520269728049    5.28235980332129   -0.01485196915060
H           0.60422986824930    3.73247620476706    0.45728308178272
H          -0.44706376936699    5.08190986057843    0.02238669640947
H           1.45217405069394    4.34762910606420   -4.22709091753688
H           0.47265372485102    5.71709383289575   -4.74883577014367
H          -0.65031601258259    2.97525431177304   -3.99796368613695
H          -0.37803165180505    3.57337948123048   -5.63023368858585
H          -1.57702154251852    4.35548689692462   -4.60573044769701
H           3.23025876980506    5.29099021860555   -2.67454760672224
H           3.56759246594914    9.47614785728508   -1.81367110052821
H           1.11516722457859    9.69235324695971   -1.75645199730701
H           5.51187798061732    8.22423973507315   -1.96040769097294
H           5.25976283056140    5.51315032965821   -3.35847428855698
H          11.96004150762600    7.01469764927044   -3.24073485310171
H          14.12188638947401    6.59629280968025   -4.18472993644043
H          15.35854747103289    5.25089452508964   -5.99303212699478
H          15.94044724967584    3.83525875396383   -7.77686443412809
H          16.00435103778379    2.13728658200947   -9.71127779735647
H          14.37330191510454    0.47950831630423  -11.01518330269337
H          12.61744495915982    0.41633442523003  -10.47223566776439
