91
 SCF done       -186.660386273101          0.000913434753
C         -13.98550544095493    3.28421766772150   -3.02507034519807
C         -15.09555146528228    3.39128658219257   -2.23223640610232
C         -16.38100570482278    3.70747413445431   -2.71753372376830
N         -17.44801989694139    3.94348395436927   -3.06773060438718
C         -15.08269308553327    3.14708956057137   -0.84358324958807
N         -15.10642915523134    2.93892903291171    0.28486357816063
C         -13.93958417674013    3.50071250231915   -4.47069593372535
C         -12.64965195954696    3.14399560908269   -4.94016685646849
C         -12.26509504762674    3.28700505525418   -6.25142508650400
C         -13.18411539827761    3.85426214434055   -7.13631885242113
C         -14.46068987752799    4.23345043427754   -6.65823435109026
C         -14.86314058321803    4.04825204665963   -5.33904727225856
S         -15.40801875865904    4.97907738323124   -7.90643443171070
C         -14.09521867944528    4.77477310434530   -9.03313555856857
C         -13.00062372345677    4.17461066716848   -8.50831800563684
Br        -14.26784368108005    5.36888901952899  -10.80348217852252
C         -11.81118795641743    2.78366011941334   -3.79652916610847
O         -10.61675705310086    2.48726032092658   -3.83242322648524
C         -12.64693696956395    2.92988122100748   -2.60514580741451
C         -12.09718549579632    2.88704839410805   -1.34598917486273
N         -10.78027451680153    2.68447675870845   -1.23070676453256
C          -9.98622366466775    2.68867514745392   -0.13570183441732
S         -10.57949163916973    2.49012193102347    1.47781670537457
C          -8.94172274567324    2.51938762549325    2.05557708781118
N          -8.72886099978161    2.39460092782921    3.43476951791574
O          -7.57774254577885    2.40870899321005    3.82976120950307
O          -9.71759295719268    2.27898996996683    4.13614027522345
C          -8.00619727545683    2.67954831602586    1.06723451314274
C          -8.58590181733838    2.79112266714817   -0.20875982559816
C          -7.91880265451900    3.07234523879284   -1.44716998239098
C          -6.59702301875556    3.02239233814100   -1.71081948172341
C          -6.11272385721707    3.38890160660851   -3.00442562590993
O          -7.01425451803664    3.91939477607901   -3.88560226980418
C          -6.36538550118403    4.16423462616515   -5.03369567897189
C          -5.03977928109132    3.80786737040004   -4.93993018679814
C          -4.87724992573993    3.30675649596339   -3.61886400695607
C          -3.60416348637727    2.79388243186915   -3.05062968571350
C          -3.97829187790428    3.90644496779887   -5.97817573159184
N          -7.09448610469902    4.70668074545520   -6.06628306275344
C          -8.37911365214192    5.12088177248534   -5.96737725424209
S          -9.22081112696092    5.05665066181950   -4.46326221574234
C         -10.61854685428055    5.75113393395141   -5.22714689695168
N         -11.75630647063163    5.90462265722814   -4.45352901881988
O         -12.76762305385835    6.34632594521022   -4.97507665908308
O         -11.67806133680693    5.53055413390811   -3.28486654514833
C         -10.44608003788357    5.99655964037081   -6.56222274518455
C          -9.16867675280612    5.62755422709947   -7.02276985869908
C          -8.73988865372585    5.73372985970229   -8.38298202911345
C          -9.56901672465417    6.03065007566996   -9.41250335593386
C          -9.13367488047510    6.15650464861346  -10.75303375873926
C          -9.87021896435270    6.59453238444752  -11.80978923783111
C         -11.17860449382659    7.21315883663221  -11.89078851528821
C         -11.76426892093782    8.03378251642117  -10.96346660865068
C         -12.99812908562228    8.69041074443072  -11.16531741344997
N         -13.99364340541745    9.25083252827577  -11.26935219817586
C         -11.17151594482480    8.41985345068551   -9.74350976054974
N         -10.73181134515979    8.78812300976976   -8.74882327778134
C         -11.66488985809007    7.00655925067187  -13.25009661326795
C         -10.59965231821123    6.51394148365504  -14.04695905797282
C          -9.41088764300080    6.31127044494635  -13.19783655608614
O          -8.30732575110641    5.94294086755725  -13.52996063517105
C         -10.74144979185678    6.26176901778524  -15.39016943263983
C         -11.99452754903883    6.49054065820937  -15.96806117279369
C         -13.05715838894100    6.95845506497352  -15.15685218231748
C         -12.91233475974367    7.22520425054495  -13.80134350061761
S         -14.52136241229553    7.15050303701893  -16.06904583183172
C         -13.69786255111473    6.61678885416394  -17.51043882677944
C         -12.39358070582747    6.30515386333600  -17.31972900459979
Br        -14.63644360099485    6.51735732311085  -19.12998719255375
H         -11.27571506361772    3.00325289456224   -6.57670619529877
H         -15.84141576979698    4.36572115462791   -5.01906950333159
H         -12.10172589855449    3.96519393181891   -9.06016303323488
H         -12.67097510655562    3.05405891402815   -0.44380882062520
H         -10.31198236843109    2.58049003612466   -2.15336299636569
H          -6.95355324303257    2.73429821395339    1.27480430245890
H          -8.55843536537512    3.38379022819496   -2.26063249659815
H          -5.87048247913217    2.69712564517564   -0.98398560311934
H          -3.25144662879254    1.93988049166291   -3.62757298306392
H          -3.73548836821003    2.48779343149531   -2.01791775563048
H          -2.83509498449873    3.56397220249636   -3.09474919651283
H          -3.13468782994894    4.48054371932819   -5.59835037476429
H          -4.34654705406540    4.38891421498669   -6.87994549985394
H          -3.61179928112962    2.91429095099861   -6.23956954547167
H          -6.61527310750270    4.82513367794059   -6.94773922248465
H         -11.21084153243206    6.45220788840952   -7.16241026796357
H          -7.68885629769840    5.58465185186052   -8.59714209652028
H         -10.62207756769189    6.15986045943435   -9.21931078277657
H          -8.13443853933086    5.80880205557201  -10.99391722158151
H          -9.91334815028656    5.89659875869830  -15.97708855349354
H         -13.75077909261878    7.56748083519035  -13.21836590369697
H         -11.73910673963366    5.95912141418944  -18.09872741290200
