104
 SCF done       -209.969670445709          0.000502681015
C          -6.26166042172835    2.29871145762783   -6.57770000394007
C          -5.03711814094781    1.76697928957593   -6.86821237796046
C          -4.77527363140406    0.95846938136158   -7.99649379518227
N          -4.50660618559106    0.30454325650162   -8.89957375023102
C          -3.86813002483509    1.99673853358134   -6.11021976936975
N          -2.88830568176425    2.16219138962451   -5.53638856139336
C          -7.48029943168681    2.14159822166557   -7.35558194319524
C          -8.48104184186276    3.00622574311616   -6.83910138074516
C          -9.74968369413636    3.06965613281471   -7.36519472666573
C         -10.04972569355451    2.23286056803047   -8.44382023586521
C          -9.04502380929771    1.37065920922528   -8.95268649651034
C          -7.76124942768368    1.31247651578007   -8.42698922863195
S          -9.63188625783510    0.42124085905993  -10.28153737713443
C         -11.19616015226608    1.17958263104574  -10.13977254725989
C         -11.27647023700942    2.09931933510031   -9.14766732963813
Br        -12.57085071707808    0.68718889611014  -11.31293225965854
C          -7.93843872819513    3.75399031414743   -5.69997240575384
O          -8.42976051777389    4.69866466009028   -5.12505364989017
C          -6.58900478940066    3.15543484595846   -5.44304397943195
C          -5.88032913144925    3.33360939580250   -4.31154113628323
C          -6.35130860964165    4.06866004490879   -3.16560460860361
S          -5.28031886711959    5.20843475097013   -2.41735748126216
C          -6.49669740976675    5.70166104887712   -1.28100720407285
C          -7.64353574725042    4.95818119362366   -1.42884186807290
C          -7.56568414765888    4.03745899656463   -2.51085661838177
N          -8.64649284499227    3.15638467303983   -2.80748663205957
O          -8.42956033663942    2.21140999699029   -3.54215216372874
O          -9.71146344949437    3.39828511794780   -2.28907973432430
C          -8.72852753491000    5.09633935781046   -0.53667002904139
N          -9.53943636377418    5.25072702077603    0.25737305678829
C          -6.25307733229558    6.71262247132916   -0.25843192417383
C          -5.61762036761158    6.36072599416288    0.89201129235957
S          -5.51094456986023    7.62237248745567    2.04789824150155
C          -6.33284986241128    8.69126514348193    0.95635401886637
C          -6.67575365471120    8.09059031125288   -0.26261922610450
C          -7.32566260599259    8.86245260531864   -1.25753810605983
C          -7.61120722956481    8.21148477314734   -2.58773043594270
C          -9.04381028502744    7.68793041367564   -2.71497188702273
C          -7.65463549712006   10.18909758185769   -1.00726231998829
C          -8.45236622004090   10.97558206966709   -2.01462781096354
C          -9.87208138702919   11.23779298478129   -1.50694195777029
C          -7.28371612100494   10.80349035268714    0.21927826387006
C          -7.46492234369770   12.15351013997766    0.71807087220616
C          -6.97364389879956   12.29184505757119    1.98776933185115
S          -6.26305563450745   10.88405608475162    2.64825186249758
C          -6.63277194931567   10.02301942518303    1.18869254926929
C          -8.01860069771722   13.30456983078036    0.04373518462390
C          -8.60098067612014   14.34459416849516    0.67345340546256
C          -9.07691688238454   15.50737882308838    0.00007345773780
O          -8.97544182985837   15.59392482355553   -1.36674105937599
C          -9.47739823028738   16.79610617514339   -1.69417794373342
C          -9.73395475582286   17.62452240249178   -2.79682335220267
C          -9.49913139351924   17.36223798113334   -4.23299332492546
O          -9.82427634366089   18.12257721501051   -5.11830301482096
N          -8.90693261624872   16.16781182594434   -4.46597547822863
C         -10.27641469007895   18.79047077072757   -2.23423371512839
O         -10.38380186908666   18.68581967721257   -0.87114472228968
C          -9.89901332131241   17.48131114319215   -0.54908025518307
C          -9.64882427311031   16.64774034733022    0.54583356017230
C         -10.71828814473701   19.95165391923778   -2.90769499114647
C         -11.00870944050872   21.16583464648368   -2.36691134326088
C         -10.72981044704651   21.72920318809219   -1.06143257347054
C          -9.63718557934872   21.46146746598183   -0.27976887891139
C          -9.37771245000283   22.09719082653950    0.95085111411973
N          -9.13320863207404   22.57249642977113    1.96685538683408
C          -8.59505978262047   20.58999717587142   -0.66016878334175
N          -7.69680202096573   19.93566680638865   -0.94753236839426
C         -11.66244222117993   22.83218795774155   -0.85748698959997
C         -12.32116505464252   23.10076927646763   -2.08412338087378
C         -11.87729878832970   22.12643240971217   -3.10437631016250
O         -12.19062116573262   22.08317995682975   -4.26932973070220
C         -13.23087677702083   24.12082341563503   -2.22272859605934
C         -13.51057687736755   24.90413764273406   -1.09785824506421
C         -12.85762162280947   24.61795689013278    0.12524716100457
C         -11.93125998573941   23.59186228928509    0.26489557475909
S         -13.35953387194787   25.70200159790925    1.38661864956197
C         -14.42085532160332   26.51771696648852    0.26876762237776
C         -14.40382928767853   26.00478412305196   -0.98418863400306
Br        -15.45214062189088   27.96661427647490    0.86322392839635
H         -10.49005133095960    3.73398731832521   -6.94813368816107
H          -7.03342831265536    0.63574379879260   -8.84296214842958
H         -12.16485198280478    2.65925299717800   -8.91941071835330
H          -4.88170769920580    2.92683104299429   -4.21923242839640
H          -5.22169079919611    5.39295091159565    1.13288684503039
H          -6.92082459033159    7.38079579636009   -2.71879950783362
H          -7.40086196017944    8.90725534720077   -3.40200077824201
H          -9.33453994808578    7.13947029237126   -1.82272457775349
H          -9.12095432836152    7.02218096061396   -3.57197263996508
H          -9.75025975172253    8.50191975789174   -2.84868075680559
H          -8.52546268091815   10.43409533387532   -2.95340127207643
H          -7.94788469226315   11.91575699303181   -2.23703259147892
H         -10.37685517808266   10.29510395675084   -1.30937912782619
H         -10.44154833644929   11.78632618199213   -2.25406691179765
H          -9.86377417777154   11.81642432118801   -0.58721067455789
H          -6.94933148658683   13.19492092599430    2.56520565053941
H          -7.92425313494603   13.36193957346346   -1.02793960107152
H          -8.75011780543380   14.34529605795493    1.74231153089895
H          -8.60523231415773   15.56897600675080   -3.71836013656944
H          -8.68708800725760   15.91983065842562   -5.41588845751746
H          -9.83254424218927   16.82989734634281    1.58341894531594
H         -10.89574542101607   19.82234388684477   -3.97027170659090
H         -13.71141474293514   24.31002161350817   -3.16969591214308
H         -11.46165246059580   23.40568986927726    1.21672411585268
H         -14.99595615714417   26.38489587169830   -1.79648133305671
