92
 SCF done       -206.933139503226          0.000717535073
C          -6.01893196065207   -0.82345288689520    1.44043109275941
C          -6.68845136308965   -0.21568407375149    2.46872229526123
C          -6.86908935130647   -0.79010585179578    3.74538986939734
N          -7.04043275298981   -1.20206154046919    4.80236488638754
C          -7.30433298923209    1.05213858072443    2.39092003740988
N          -7.83655241278129    2.06891113201968    2.39593204857619
C          -5.44274284616916   -2.16003147702912    1.46450298183727
C          -4.93210685826934   -2.46445652341109    0.17761233177134
C          -4.32475830052864   -3.66230966933606   -0.11408491241603
C          -4.22204898129158   -4.60862143716921    0.91009296384314
C          -4.73482249743466   -4.29612170434542    2.19361131820892
C          -5.34436487379739   -3.08388904206851    2.48973664000974
S          -4.49697957210388   -5.60304503367395    3.31193268288691
C          -3.72426876852516   -6.53972495379492    2.06026526433001
C          -3.64733306718576   -5.90761033261868    0.86444450295868
Br         -3.09004638756528   -8.25919627579327    2.45089448572655
C          -5.14408281889151   -1.32234191261183   -0.72667131801412
O          -4.72807029772832   -1.20532621456782   -1.85496082189567
C          -5.83643049646928   -0.28578266421675    0.10232019362891
C          -6.06337899183276    0.98846154699292   -0.30611109998519
C          -6.06236429342382    1.38951465462685   -1.67238345306628
O          -5.74032054251952    2.66619463516379   -2.00110039989066
C          -6.43716556049595    0.72530834052595   -2.82385735873344
C          -6.98802221966536   -0.53854935969509   -3.34638166294796
O          -7.34147080244060   -1.53899957959363   -2.78415951692675
N          -7.07566328866234   -0.30671622214948   -4.71337649350816
C          -6.68946935394722    0.96513430389674   -5.13968883467205
O          -6.68905628122614    1.34069959516560   -6.27818040197073
C          -6.30976167884952    1.64321568174832   -3.88869412246266
C          -5.86418170858407    2.83538480681234   -3.34248741131881
C          -5.52666549004952    4.07165225494415   -3.95714075170756
C          -4.96486652742109    5.09654540708070   -3.27188550173766
C          -4.59082907039198    6.31317069243510   -3.91615669320577
O          -4.89022948821584    6.44941477363785   -5.21049405306281
C          -4.43715991862353    7.64196589015308   -5.63818263703327
C          -3.80919632401542    8.32704806972798   -4.58972748821925
C          -3.91398598394662    7.45573487137217   -3.46903961562202
C          -3.37660414033321    7.66770164382699   -2.09446732613061
F          -3.53380650511098    6.60675342056199   -1.29579984398331
F          -2.05421257152805    7.92734216857882   -2.09402853723750
F          -3.95898636895616    8.69760116462496   -1.45198019336953
O          -3.27702010031373    9.52866998943793   -4.79359429705925
C          -2.87493990993533   10.35242844548636   -3.71002831617131
C          -4.68505469136032    7.99841552865692   -6.98713977021396
O          -4.15447339343060    9.10851851804657   -7.53647924590156
C          -5.46234932064636    7.35414129578723   -7.93214000764957
C          -6.33504239290285    6.19851854666611   -8.16847579703613
O          -6.67132549236560    5.30032894052021   -7.44643340286201
N          -6.73213189886227    6.36589696746618   -9.49604474959355
C          -6.22590748937907    7.49091225412467  -10.14051415188891
O          -6.45001232161245    7.80364771385092  -11.27824472828598
C          -5.39880395976778    8.13696771404782   -9.10720466504647
C          -4.58062766987092    9.21638601265216   -8.83058310639925
C          -4.16765114578898   10.31865199123414   -9.62042911565542
C          -3.29596453722833   11.24422344740305   -9.14666524881700
C          -2.86421442379240   12.37300392413417   -9.88062765991575
C          -2.08357556526690   13.38226700350616   -9.40516322768701
C          -1.62037050152407   13.66640670188493   -8.06238067506738
C          -2.28283109181839   13.39597760729594   -6.89351124570171
C          -1.76804544379386   13.67673745540640   -5.61170638491269
N          -1.39044674831786   13.82799225616839   -4.53787289570060
C          -3.59967559349515   12.89018906163649   -6.81318913281554
N          -4.68547019797351   12.54769610366731   -6.67091147450321
C          -0.41589274531967   14.47940555587201   -8.18677710287198
C          -0.27820092744578   14.88590454637341   -9.53935844172637
C          -1.36214971208108   14.28635243607336  -10.34415431229280
O          -1.59064293115848   14.44297928946662  -11.51977808422967
C           0.74613648888001   15.69706581108692   -9.96355629299940
C           1.68310065305030   16.11747164733499   -9.01344565138674
C           1.54190308265585   15.69806158688736   -7.66796988381852
C           0.50104932652931   14.88550627133605   -7.23586103810903
S           2.81563598857055   16.32332281923680   -6.66664020520306
C           3.51015108371043   17.13178525762627   -8.04694842153183
C           2.82492709729379   16.94305353277064   -9.20019419380208
Br          5.07527351215446   18.14182995134702   -7.83574929771144
H          -3.94657937568666   -3.86290860424660   -1.10395726314355
H          -5.71269738401272   -2.89068795553975    3.48340367206250
H          -3.20286465212940   -6.33822454730528   -0.01409426811455
H          -6.25815903779669    1.77701379033836    0.40907657577173
H          -7.40708774950039   -1.01019370648150   -5.35867233086437
H          -5.72556771346405    4.14611262436552   -5.01722792107010
H          -4.77081546453392    4.99601179990049   -2.21659890996971
H          -2.63199166279509   11.31534474882994   -4.15538062665018
H          -1.98827064910789    9.95811574799096   -3.21123847606546
H          -3.68378455039333   10.48863310373049   -2.99092519870221
H          -7.34779760547603    5.71159959508900   -9.95859291606782
H          -4.60460592052277   10.39276822496103  -10.60535428807181
H          -2.89167618599766   11.08724176399661   -8.15675698065106
H          -3.10722651254372   12.41389581609034  -10.93645396583184
H           0.82369287856445   15.99781621373393  -10.99649514602267
H           0.43630017850631   14.58624777664298   -6.20263201641132
H           3.11272808542058   17.36673054389817  -10.14492086089739
