107
 SCF done       -204.827992730205          0.000539590756
C          -7.43288935413774    7.04931243958780    2.96999944555001
C          -7.59050199969644    6.47179941017312    4.20257656234401
C          -6.88839204068738    6.86689082951707    5.35975643183302
N          -6.34790618959096    7.14934354992587    6.33210056431117
C          -8.47809258136157    5.40852154998518    4.46710246609703
N          -9.19289890154134    4.54768384215025    4.72336545495970
C          -6.52491895302225    8.14783936892437    2.64855614526824
C          -6.63658200369762    8.44992779095934    1.26628874952949
C          -5.90696286659806    9.44632048267573    0.66372259035357
C          -5.02825698382069   10.18516183692852    1.46241606549794
C          -4.92454929375246    9.87887711859495    2.84043508522377
C          -5.65940114256235    8.86754799775764    3.44906234598780
S          -3.78698445981177   10.91727370034730    3.64197908083607
C          -3.47067761533840   11.73967684983877    2.13748265269325
C          -4.17851495414433   11.26085353688353    1.08650754536558
Br         -2.23725902415048   13.15146604960531    2.09404919517876
C          -7.62903244494221    7.55359489934865    0.66323246868428
O          -7.99297317371645    7.52116993664062   -0.50860835710993
C          -8.12139751982587    6.69852505343630    1.74842017224417
C          -9.10977821926849    5.76909560012674    1.53821797809487
N          -9.62757040932530    5.60505252963878    0.31503800806222
C         -10.67605762198083    4.81666901858108   -0.03197774676690
S         -11.61985175316319    3.97379235527332    1.15800847765065
C         -12.70227291751772    3.46099048280223   -0.09516169430715
N         -13.79661432743280    2.66028633720881    0.26542137740305
O         -14.55772935781011    2.31877977164567   -0.61929771286772
O         -13.90022761137490    2.37226922641491    1.44317784217040
C         -12.35723185767304    3.91457857190630   -1.33946374878111
C         -11.17668618927790    4.68200325623355   -1.33242088809530
C         -10.60351043665539    5.25289633769397   -2.52572622860826
C          -9.28392755824680    5.45656692207481   -2.72556259111485
C          -8.65250288603244    6.05509494415868   -3.85390291269473
S          -6.96668807214625    5.68567961461242   -4.06943117444651
C          -9.10285024789399    6.95098690438599   -4.81938605099030
C         -10.49066488586170    7.50519552114780   -4.86865278047723
C         -11.39253565158544    6.70290509037390   -5.81919066979647
N         -12.67805075662107    7.36557872747921   -5.93010479406873
C          -8.10452503149343    7.30843472238703   -5.73723890273945
C          -8.29499057620466    8.30359613694168   -6.83556036264892
C          -7.80197262650079    9.69446169607737   -6.40202304010529
N          -8.16420405255394   10.66683150798383   -7.41402733835799
C          -6.87096073426583    6.69452337333767   -5.48322809687809
C          -5.69662104864803    6.82480481019409   -6.23884675715035
C          -4.47927744321786    6.22846826346458   -6.01784588358491
C          -3.33119442152004    6.37756556289275   -6.83634447303897
C          -2.24764918021904    5.66630895704005   -6.41890233253284
C          -2.48038029802260    4.91686912029380   -5.24465094687406
S          -4.11721017125863    5.15089620910985   -4.68249667007284
C          -1.60089171096469    4.08143213983291   -4.57604959842556
C          -0.26110141895617    3.78574279758032   -4.89916224231521
C           0.32875788463783    2.90519352735080   -4.03847154651522
C          -0.51503482693679    2.46579398209043   -2.99509081676733
S          -2.08993648164731    3.20481574227361   -3.14306098254578
C          -0.19548969291151    1.56133431547372   -1.99833319479598
C          -1.08385502329954    1.18998845002897   -0.99801950939764
C          -0.91418241404197    0.26090130285982    0.00830740878377
C          -1.79138662890945    0.33260309212348    1.19654894064388
O          -2.78510623245535    1.01636115398418    1.32923258946603
C          -1.17305330400779   -0.56196501822917    2.19790341418516
C          -1.54427443650947   -0.79279774580837    3.48979080448406
C          -0.77327736482499   -1.67692448748643    4.27871537239668
C           0.37489846182454   -2.29817627988956    3.70918039584892
C           1.14482404743698   -3.17172330255327    4.50221430177076
C           0.78875454461785   -3.42031259864646    5.79824561002981
C          -0.34848226316393   -2.80787112702321    6.35924973599597
C          -1.11437134643031   -1.95339387095975    5.61650184553434
F          -0.67468553042654   -3.07008260407212    7.63370257556354
F           1.52294808158376   -4.25335480200460    6.55041247038788
C           0.72975060559532   -2.04425508584562    2.36308777410405
C          -0.03826701183711   -1.19423625470949    1.61523967751326
C           0.05499134462059   -0.77767351028071    0.21328313004929
C           0.79899454384656   -1.42892065047041   -0.74490402135218
C           0.66510200222365   -1.23433296302761   -2.13295894431901
N           0.57098499184720   -1.15964738930369   -3.27573990320196
C           1.71500959256732   -2.45972942391499   -0.46046478995835
N           2.49226071980917   -3.28863312175224   -0.29062834960815
H          -6.01323878471887    9.65189870660121   -0.38990477791159
H          -5.54496243124880    8.67354246186092    4.50234046875818
H          -4.10622111944718   11.65051162545255    0.08759353762619
H          -9.50328416639430    5.14779880518703    2.33239387930320
H          -9.21835876059091    6.22710168614914   -0.40690852515702
H         -12.92709932217456    3.67872154846437   -2.22003849635490
H         -11.31332502718695    5.45090088391947   -3.31267209469834
H          -8.58194916799270    5.07187577441704   -1.99615810764494
H         -10.46872540293720    8.53542505254648   -5.22379820579576
H         -10.92301981303449    7.50916804531368   -3.86687615670332
H         -11.45716860555723    5.65574990601436   -5.47351878395757
H         -10.94261878074160    6.68490809210518   -6.81558917285471
H         -13.16560557820449    7.35840892405687   -5.04038916773519
H         -13.26620684582587    6.90223833158656   -6.61272758363544
H          -9.34705616642941    8.39038087432006   -7.09954760804395
H          -7.75312630857745    7.99396063608601   -7.73133997694432
H          -6.71844157237849    9.64607808002686   -6.19395509535222
H          -8.30417763037653    9.97810221463228   -5.47283648204313
H          -7.66634556843635   10.48849880009844   -8.27963041233022
H          -7.94096833081961   11.60725013118558   -7.11078046068932
H          -5.75479014720682    7.46134798233816   -7.11169122960536
H          -3.34611765821866    7.00235143955550   -7.71209234833474
H          -1.29813208424800    5.65740535546754   -6.92243042727709
H           0.23181766162227    4.22237884505091   -5.74898910638732
H           1.33982818774745    2.55021385562305   -4.12675303754387
H           0.80611445804585    1.15837011575108   -2.01433151872748
H          -2.01296210969974    1.75029470490474   -0.93239946190380
H          -2.41465736982368   -0.30864307497086    3.90588569416000
H           2.01702759708526   -3.65208801073729    4.08701722128631
H          -1.98241394360499   -1.49173137420739    6.06048034020713
H           1.60644150382922   -2.52683450129003    1.96197039743340
