168
 SCF done       -297.738779175436          0.000531912530
C          -9.44588071805191    0.81224663781221    6.04066851307346
C          -9.58735571474672    0.71785693474496    7.39876817322247
C          -9.82501445136218   -0.48807907923989    8.09212160768264
N         -10.01141166582141   -1.43596805059023    8.71172435624125
C          -9.52045260109714    1.80909467626786    8.29060959683787
N          -9.49314607580461    2.65291899669017    9.06860059064649
C          -9.57738452290104   -0.28127156959978    5.08763149365565
C          -9.40401130829444    0.22249092360050    3.77374135863032
C          -9.50471758289481   -0.56981627628330    2.65645265633414
C          -9.79323931561820   -1.92558262914014    2.84205814288109
C          -9.95355591298306   -2.42371777112481    4.15818776298577
C          -9.84968122952426   -1.62341294813934    5.28787683100141
S         -10.29737247342102   -4.12695204171506    4.15919443885432
C         -10.22884437689579   -4.14546394348027    2.41716081350982
C          -9.95891081282251   -2.94023651372813    1.86086011850514
Br        -10.51262205668333   -5.75478741059570    1.49852102072515
C          -9.11006190338869    1.66619221626118    3.83600745356211
O          -8.73330057508166    2.37472107339587    2.93216789572520
C          -9.21321649918010    2.03108059323154    5.27940055717792
C          -9.02040854595897    3.29135067599218    5.72889426759811
C          -8.96996104784193    4.43419019967676    4.83057572344074
C          -7.80826736176313    5.21470665003226    4.77398851523797
C          -7.66803070460498    6.24546381917386    3.86978309692331
C          -8.70585354174380    6.57215928098745    3.00072916805114
C          -9.87877635647063    5.86079448201253    3.08527748876862
C         -10.02478113024607    4.79952624186617    3.99130126571304
N         -11.32742360655489    4.33596769880215    3.95371799424141
C         -11.92568081366262    3.32148652176173    4.77198989480067
C         -12.08076311598935    5.02677668135901    3.03384083370307
O         -13.26108835032412    4.86792214213175    2.84997730300084
C         -11.16002922726883    6.01242843228949    2.32631164042338
C         -11.02627498876861    5.58806638465424    0.84769603084960
C         -10.36686943255868    4.20641600969190    0.77870381132027
O         -10.80349486173857    3.17276435883294    1.22795373821377
N          -9.17954716805450    4.34762964938040    0.12132492946522
C          -8.24513092411565    3.27247554714142   -0.06534179578528
C          -8.97963393758104    5.65437151578987   -0.29828572316437
C          -7.91133577054580    6.18127948865237   -0.99104899440847
C          -7.93018981800710    7.54465218315756   -1.31463431768684
C          -9.03029287154475    8.32079371079756   -0.93578022640539
C         -10.10004178325315    7.78307820517044   -0.23691320751544
C         -10.07169218408409    6.44435816688920    0.08307090756825
C          -6.84606352745286    8.19617752236119   -2.02663042247390
C          -5.71437266891070    7.62585554194447   -2.45943293367967
C          -4.63980117741185    8.35618616563067   -3.11744869091792
C          -4.32982023308100    9.65911466668612   -2.70318856674972
C          -3.28692711081771   10.38340662112322   -3.24122491263946
C          -2.47506832657730    9.82443795730526   -4.22193751863631
C          -2.75797055977165    8.54737896116914   -4.64717707480528
C          -3.83680737376624    7.81741539291531   -4.12591754088861
N          -3.93605654713075    6.60823415745305   -4.80195912632635
C          -4.92184100984742    5.57610128147845   -4.62620864040724
C          -2.93658487935879    6.46231909389481   -5.72524520408234
O          -2.81670129244563    5.52856253636549   -6.48134673014534
C          -2.02083612072825    7.67611204720525   -5.61490810777823
C          -0.67163114226794    7.21712592775080   -5.00624860915116
C          -0.94023946165194    6.75628299914259   -3.57201402896048
O          -1.62602561733139    5.82759619294242   -3.21114078084970
N          -0.30093246904325    7.62146746954455   -2.73124338593479
C          -0.40538399059830    7.55488361578455   -1.30019150396042
C           0.40838770595681    8.58510628555390   -3.43390672624137
C           1.14405959904502    9.63762651125295   -2.93783227919060
C           1.76850052476263   10.50162273552984   -3.84634568783233
C           1.64503840276679   10.25695945292463   -5.21715532935020
C           0.89609838401060    9.19701928890626   -5.70670065359339
C           0.26712658718513    8.36256838778739   -4.80939849928929
C           2.49954601856949   11.68054728639417   -3.41535037494710
C           2.72872215072445   12.06220432256936   -2.15415761888549
C           3.44511837286665   13.29400041156603   -1.83124538734492
C           4.57034013560237   13.23304714868024   -1.00168178542807
C           5.37259490868211   14.33057048659340   -0.76419764916745
C           5.08550616044198   15.55363906383269   -1.36116222121437
C           3.95790898373259   15.64660290358626   -2.14302956016649
C           3.11899565711820   14.54301561858230   -2.35706193134138
N           2.00480989968755   14.94648457377533   -3.08443274725260
C           0.80194215961445   14.20062907481856   -3.33728539110481
C           2.09210219183402   16.26231039777992   -3.44177017251118
O           1.24829231869084   16.88083112737336   -4.04544168785504
C           3.42837324232765   16.79867503564160   -2.93775935762576
C           4.34345430468079   17.09918352956442   -4.14763783989864
C           4.82030014365119   15.77413709049150   -4.74631571145164
O           4.14362128675590   14.89411745606252   -5.22391467581930
N           6.18071842961931   15.72393372957652   -4.61060590229274
C           6.97351299926278   14.59259237575219   -5.00682210624001
C           6.67697593995381   16.87078061084384   -4.01159668751231
C           7.97819954339702   17.18844635269181   -3.68966952377370
C           8.23317995561464   18.41946938919503   -3.06418034450251
C           7.17341484567478   19.29834332857052   -2.81243542882323
C           5.87001268498729   18.97104823813144   -3.14690793164418
C           5.62149626779218   17.75148091271423   -3.73835396218826
C           9.59628015220537   18.74946726498976   -2.72161974850919
C           9.98867919121632   19.72865036581374   -1.87837712164775
C          11.33523581955200   20.01218294374565   -1.51584152968268
C          12.50419289043356   19.79280317765837   -2.17531017884233
C          12.84130693743692   19.42328246481668   -3.53585122474630
C          12.11376737527808   19.68410607537731   -4.66769085610479
C          12.54902936301578   19.37121064928365   -5.97196941102864
N          12.84620783499454   19.11809458467256   -7.05132860727792
C          10.87664956651757   20.35845888358545   -4.67766159582730
N           9.88173544626998   20.92577845919216   -4.75037690374381
C          14.22170673528026   18.94579504962492   -3.52534872415582
C          14.79491028485037   19.22947361646649   -2.26027361573251
C          13.77251931955425   19.84325259994756   -1.39243899951030
O          13.90824335026944   20.26231489008420   -0.26632659941549
C          16.10298210955954   18.93698195551234   -1.95884454742761
C          16.87924947398377   18.32489104806600   -2.94818205248289
C          16.29315383637536   18.02959475668120   -4.20276465934855
C          14.97258437269461   18.33263820036057   -4.51054125391274
S          17.42679707202068   17.26276437108023   -5.27268168915968
C          18.65740534110384   17.35266509333777   -4.04023035708680
C          18.24212938821512   17.92501637104774   -2.88524522917232
Br         20.37175760777759   16.68035215765248   -4.39445974990744
H          -9.38247381608097   -0.15215465470403    1.66983033420457
H          -9.98109874997044   -2.04938427162334    6.26848937437936
H          -9.88044862254226   -2.77164960973324    0.80245650119764
H          -8.84982909731777    3.48811947947462    6.77965788641632
H          -6.98992095994506    4.96015702516377    5.43110684176594
H          -6.74487461488241    6.80278358443268    3.83356398659696
H          -8.59658353060749    7.37657710985484    2.28976992374651
H         -11.64916070374526    3.45933820666862    5.81924410707650
H         -11.62643865711841    2.32301853828044    4.44216577546528
H         -13.00614733446988    3.41877397840964    4.65592834853102
H         -11.56963053412783    7.02490985878917    2.36795304212523
H         -12.02922381011769    5.55106436924968    0.41210869718246
H          -8.59782824137511    2.43450956755161    0.53245421125479
H          -7.25760337441394    3.56912375770331    0.28990367355195
H          -8.18599669568171    2.98449866968848   -1.11775572370849
H          -7.08105298838885    5.55646683467939   -1.27545577938281
H          -9.04249972367976    9.36959711594995   -1.19333302339009
H         -10.93614481266607    8.40392440091922    0.04824587395650
H          -7.00576036899709    9.24832088919695   -2.22607253332729
H          -5.53861001539315    6.57416106234206   -2.29901431649990
H          -4.91965031349046   10.09380151939340   -1.91038764587854
H          -3.08968150178416   11.38463287737081   -2.88943555234793
H          -1.64753874406468   10.37816388227433   -4.63760459996680
H          -5.92097938452154    6.00747340749088   -4.55969015994590
H          -4.70439296373162    4.98125731609014   -3.73691121083390
H          -4.85617120210576    4.92517326249218   -5.49901288000975
H          -1.84103097858732    8.13181961025123   -6.59037038350294
H          -0.27142248152798    6.40405673573693   -5.61704545721019
H          -1.01904274672051    6.68787189180594   -1.05868297583235
H          -0.88312933429000    8.45679069523000   -0.91057838089807
H           0.58106578814933    7.44023607480883   -0.84673337013961
H           1.22195968946209    9.80014096016790   -1.87562205087998
H           2.13601310035432   10.92314135787852   -5.91096108976544
H           0.80203970872060    9.03829594856485   -6.77035495072556
H           2.87969689555063   12.30738345109439   -4.21284054087373
H           2.45961874624830   11.43635275206948   -1.31397092395439
H           4.82769761445360   12.27980375850377   -0.56298523751145
H           6.23727973955992   14.23560995304697   -0.12522210771954
H           5.72372541247569   16.41044615582144   -1.20515742570531
H           0.49748356692662   13.65811444544181   -2.44204996450033
H           0.93181805285075   13.49394266480544   -4.15769976293024
H           0.03490210600368   14.92516386713929   -3.61428499356743
H           3.28339925668935   17.71558813300624   -2.36219781560587
H           3.77094693888145   17.67775448671026   -4.87837414832701
H           6.29823355680239   13.85873746403503   -5.44476355178665
H           7.47203386136755   14.15335775088915   -4.14002202477038
H           7.72053892338447   14.88666784015771   -5.74643134927420
H           8.78939307674279   16.50775479904022   -3.89806417641280
H           7.37514632007026   20.26030921929716   -2.37145857304746
H           5.06482395249826   19.66185266227035   -2.94862540412939
H          10.35083118653698   18.09831215323203   -3.14739672545700
H           9.24245640413369   20.30299816177843   -1.34775629078914
H          11.47133176882423   20.42613046474532   -0.51972866203463
H          16.51485800248697   19.17372607909666   -0.99045855155680
H          14.56936108968846   18.08365773110352   -5.47812018378090
H          18.86942921405672   18.06062638203484   -2.02328023382420
