105
 SCF done       -198.440622498469          0.000733274316
C          -1.26643629387950    3.22219223279560    5.88923268621979
C          -0.08901287440110    3.92087832886761    5.83010341781002
C           1.01485176848837    3.70218812382539    6.67906558897091
N           1.94648353771330    3.59165932969410    7.34142632396395
C           0.17465627514797    4.99648615090826    4.96136816580153
N           0.48782909265055    5.89476115134876    4.31544688896217
C          -1.57514734655284    2.15514725038714    6.83108388985824
C          -2.93063181385547    1.78173869849192    6.66241305057701
C          -3.52034091994280    0.78769510916413    7.40339766488454
C          -2.73563691234338    0.13351755388215    8.35992750542281
C          -1.38178220101828    0.51243551042452    8.51928529932855
C          -0.78412916703930    1.51636079559860    7.76731737720814
S          -0.59373678043983   -0.43282959382462    9.74674717604761
C          -2.07398143742728   -1.31022441857875   10.02621471735703
C          -3.10616058781303   -0.91784497364204    9.24237743266580
Br         -2.11686649934494   -2.66324757244913   11.32455549191760
C          -3.53197578114350    2.59351307431507    5.58378269312109
O          -4.64966543633177    2.46248032065075    5.12439278121184
C          -2.45720789122002    3.48391449624820    5.10808341532193
C          -2.51586625843662    4.28714126654463    4.00188890883704
C          -3.65250238953971    4.79776459591261    3.34307413978608
S          -3.49562579486501    5.14638578107186    1.63911272374263
C          -5.09043593452162    5.82993798985940    1.57083325709980
C          -5.68735258657764    5.82271520161557    2.82483853492904
C          -4.88391185878175    5.23986953570461    3.82114115425252
C          -5.30224039546453    5.20243398132786    5.24654927399465
C          -6.38702341273050    6.23215135988038    5.53159008238373
C          -7.53362117244977    6.05541817499123    4.54195000764709
N          -8.66521244077252    6.86403239359016    4.95434256249135
C          -7.03980974881953    6.39128587111119    3.12061833756633
C          -5.53217733630612    6.28558041479589    0.29390263145439
C          -6.65065172532365    6.98229339478724    0.01595911066437
N          -6.97334460473324    7.37973801167897   -1.25790949046324
C          -8.01735609495125    8.18157950395490   -1.59563488578649
S          -8.72963286318437    7.97085746603762   -3.17035697014279
C          -9.95685767236202    9.12978902027545   -2.76561356137712
N         -10.91017053146816    9.44115395396392   -3.73699623003710
O         -11.77296954616952   10.24971089602982   -3.44471551380840
O         -10.80468795538381    8.87291710046928   -4.81172188572708
C          -9.81773152303981    9.63450485491673   -1.50124439614534
C          -8.69200068968876    9.13370992234129   -0.81901965759866
C          -8.30263572504064    9.69396615166536    0.45648887968536
C          -7.03522511199695    9.80804784924968    0.89679593615278
C          -6.59308228064649   10.39094022749669    2.12409490795355
S          -4.94633375202089   10.08508833022073    2.58098499963064
C          -5.10683283154370   11.03225155802571    4.02638805233662
C          -6.40467946641970   11.54791800618001    4.13651889554859
C          -7.24340002395187   11.18884382665321    3.05475272948630
C          -8.61890802491543   11.68041377480236    2.84584417269689
C          -8.90373399712425   12.66878763272217    2.01433018263099
O          -6.69327900839370   12.32801751345007    5.19724535915932
C          -8.03408048835572   12.50618524047708    5.60256552964677
C          -4.00377839265870   11.13995147691836    4.90007229197643
C          -3.91963697588245   11.93602814015846    6.00168807468505
C          -2.79517022253892   12.00335462255691    6.85430324509135
C          -1.77582349064912   11.11424629887843    7.05111828325404
C          -1.58357210851814    9.72197327668690    6.72311608741674
C          -2.54418701253487    8.74769692359237    6.58891788980775
C          -2.26591171449649    7.37508020244114    6.46003560747976
N          -2.13699553836601    6.23647388034679    6.36493948661114
C          -3.93100597181245    8.97055526808898    6.65766269706137
N          -5.07523474836463    9.06317810850669    6.70597347353042
C          -0.15653326998806    9.44415924250542    6.83004706163543
C           0.48228968711754   10.54588536117773    7.45154250692285
C          -0.51966259733426   11.60380579386447    7.68853254980627
O          -0.36256300263494   12.66681844705189    8.24461474224477
C           1.82883867308853   10.55308647481304    7.72264323761475
C           2.57680913507813    9.42856271869788    7.35191313064220
C           1.93106189364850    8.34788338716316    6.70278361622495
C           0.56883020714644    8.33977156622477    6.43307284686742
S           3.03984232204319    7.07383237737969    6.30573910500268
C           4.34089387633355    7.99174605539915    7.01474667887109
C           3.96801988199404    9.19304321939265    7.51930380187916
Br          6.07471549845542    7.28482425604547    7.01722958798396
H          -4.55454634462096    0.52078878772059    7.25204848439670
H           0.25339659773889    1.76475410052039    7.91818142087382
H          -4.08837924544318   -1.35220319281951    9.28239997890930
H          -1.57434970833027    4.55872448131773    3.53746762878954
H          -4.43275574351987    5.35000870289637    5.89239899855026
H          -5.69117291094972    4.19942809909061    5.45835661949100
H          -5.98443344838317    7.24420197000944    5.44937395647890
H          -6.76513655843780    6.10581381486943    6.54542811771182
H          -7.86233837349157    5.00941873222614    4.56426691826943
H          -8.38880572203147    7.83720493033407    5.03280071445261
H          -9.42362550479453    6.79747898706340    4.28465649266347
H          -6.98985369466081    7.48343403010836    3.01732410114603
H          -7.76433451535090    6.01568970893975    2.39165109129407
H          -4.86134206203771    6.05045564426406   -0.52363686595044
H          -7.35636655652502    7.28484931326161    0.76638825825219
H          -6.46651968325344    6.94394800449511   -2.01828786557341
H         -10.48669888641015   10.37449866807368   -1.10014882092846
H          -9.11197240128477   10.11942236397869    1.03058293468161
H          -6.22819528972183    9.41164040119250    0.29520966345742
H          -9.40265060304057   11.18475070838922    3.40727857541176
H          -8.13573009319526   13.16902453261914    1.44962768872458
H          -9.91273719801036   13.01376950955136    1.86717948030278
H          -7.97864851746659   13.06008415537064    6.53856275969744
H          -8.52162736879115   11.54503603331362    5.78397296201333
H          -8.60604955027016   13.08287662706458    4.87157994594490
H          -3.13980934375035   10.55263937739521    4.61186284481914
H          -4.72649480272935   12.62150060877815    6.20830377392593
H          -2.67586156596708   12.93090159263713    7.40740890510657
H           2.29469040974788   11.39882458513505    8.20356934964051
H           0.12605780447092    7.51337290238925    5.90292209854247
H           4.64463926604956    9.88351235207416    7.98879444102758
