93
 SCF done       -188.052260922824          0.000269126929
C          -4.63336762269431   -1.35402030228578   -0.04100365549029
C          -3.57942949557245   -2.19820788777368   -0.24203644868249
C          -3.66944413226167   -3.60750817127315   -0.19879915980460
N          -3.68185778648702   -4.75441240002506   -0.17458826642372
C          -2.25641594688865   -1.78735178013586   -0.52042998269301
N          -1.16035847566726   -1.53440518461145   -0.74575535281853
C          -6.00496070484101   -1.74166855193742    0.25118320072998
C          -6.80775426524712   -0.57816924278550    0.37355368980064
C          -8.15325614912127   -0.63421641005332    0.64981998760010
C          -8.73557971370851   -1.89404674368337    0.81810559468682
C          -7.92630066738990   -3.05081487056953    0.69499455803550
C          -6.56862976140798   -2.99631075860142    0.41276997287418
S          -8.84640781002914   -4.50352792571083    0.94112888909702
C         -10.28459311345485   -3.55305387067902    1.20270820726705
C         -10.08861745029787   -2.21563978652435    1.11066948893860
Br        -11.90710981628194   -4.41474140250008    1.57343357205300
C          -5.97820558387492    0.62007547968057    0.15491030156986
O          -6.33709540204397    1.77264832205283    0.12818021431972
C          -4.59141858408857    0.10777249526112   -0.06991156602814
C          -3.54724710449848    0.92395308986744   -0.26403578444534
C          -3.68031798169712    2.39085506019405   -0.19535793041444
N          -3.74632955018577    2.92897910021805    1.01949760936932
C          -3.84848456507911    4.24577027379623    1.07591006675862
C          -3.86745687853810    5.03904133780345   -0.05928900708644
C          -3.76547324855157    4.37849090208028   -1.28828652849247
N          -3.66946128366375    3.04648770816036   -1.33943984647399
C          -3.73780495449869    5.10402456194059   -2.53991338964161
C          -3.79906506038012    4.49407917350282   -3.73922264113049
C          -3.73533457671765    5.19159876605202   -4.97902045086406
O          -3.49664794877202    6.53026273678843   -5.00629803428890
C          -3.85635736175561    4.74816121813464   -6.28147291604070
C          -4.10347378132450    3.56826406432547   -7.12148305457537
O          -4.30987278355292    2.41966771831874   -6.83474743114767
N          -4.05273517689385    4.07698761266111   -8.41796806115934
C          -3.80361643878885    5.44570464894209   -8.51784648011726
O          -3.72576456451905    6.06403714585115   -9.54705198203935
C          -3.67843530354213    5.87265239243100   -7.12244318108555
C          -3.45102304064345    6.96307975246979   -6.29803785201229
C          -3.18399474811348    8.31838084734095   -6.59088109871288
C          -2.98066891244964    9.24498127141385   -5.60924668466089
C          -2.68758233087485   10.59804650167345   -5.82242409272824
C          -2.51572320209088   11.49381179307566   -4.79319975451226
C          -2.21158962081472   12.87383096694511   -4.88145914046911
C          -2.12590585359552   13.50572431205142   -3.67680077022309
C          -2.36145961908521   12.65791086311994   -2.57105270913202
S          -2.67812676498282   11.02972054422369   -3.10767331939780
C          -2.38801612656691   12.98292620636102   -1.22530529876789
C          -2.19698530969571   14.24319939756838   -0.62048933001675
C          -2.33984569170684   14.22610207143484    0.73626369840163
C          -2.64802778348151   12.95315220692221    1.26922204919456
S          -2.72782067084589   11.76964329014837   -0.01310895798022
C          -2.87456135897691   12.64301731165793    2.59585995059150
C          -3.19243741939378   11.35784350396038    3.02545990342552
C          -3.47939962838455   10.90938532028453    4.29444451080444
C          -3.37324872299126   11.51525575964908    5.59499491516661
C          -2.48679977084197   12.48704145296161    5.99555567440390
C          -2.42783814075747   13.00498548054956    7.30447126817320
N          -2.34667263439828   13.48077422408790    8.34664143232405
C          -1.45606490097474   13.01096820458264    5.19105386424139
N          -0.57103037416176   13.44623382773263    4.60227967944534
C          -4.24658316499276   10.76197651578707    6.49601321121959
C          -4.69947599847835    9.59957434434920    5.82301309911465
C          -4.18142665077580    9.61239710031458    4.44011240849683
O          -4.32924002580729    8.76561722733889    3.58460730561128
C          -5.51571985052408    8.67103652172539    6.42016330227564
C          -5.91729753432492    8.90750774715572    7.73971745444732
C          -5.47250967847463   10.07807069381770    8.39730408248048
C          -4.63623672940924   11.01265081405058    7.79659995584688
S          -6.10154190437835   10.18155346296572   10.01353947798030
C          -6.93978804419414    8.66918224457075    9.78801173329549
C          -6.75968717297298    8.11419477973932    8.56629847625778
Br         -7.97648067577442    7.96841673993679   11.18549787537253
H          -8.73737333386087    0.26864377946018    0.73499184554122
H          -5.99575105467966   -3.90461841976960    0.32824559268873
H         -10.86555857017396   -1.48517683788493    1.24358680056642
H          -2.55350607115189    0.55368761723751   -0.47367816828581
H          -3.90841099882037    4.67145522158124    2.06900706317241
H          -3.95391208825487    6.11137364196409    0.00229497164268
H          -3.66836586439034    6.18100938556620   -2.47413975497906
H          -3.89885632745286    3.42036436864906   -3.79708731814246
H          -4.18816975159687    3.49333895605026   -9.23131394939733
H          -3.14311499459348    8.58082282796577   -7.63723919433200
H          -3.04745467510930    8.91337832364924   -4.58033027974989
H          -2.59141000590624   10.96096003732152   -6.83649800883716
H          -2.06732186952314   13.35514780673384   -5.83245925165107
H          -1.90475286573917   14.55066929860003   -3.55493130090057
H          -1.96820936651690   15.12316171682607   -1.19420430528304
H          -2.23029091050247   15.08586373723555    1.37269884950074
H          -2.82890408759900   13.46017176111654    3.29933601581166
H          -3.32488673620712   10.60485740948211    2.25269215088788
H          -5.83900447291871    7.79106343759184    5.88661437032507
H          -4.32851072214156   11.89217961486190    8.33726855725619
H          -7.20255413262185    7.18482449509280    8.25789479210095
