93
 SCF done       -181.499690997243          0.000682692409
C         -19.58666000469020   -7.31066333998658   -1.52331856759438
C         -18.43669307554659   -8.02247172451734   -1.26735756739934
C         -18.37994512719044   -9.42742479632688   -1.18082228902400
N         -18.26253074075212  -10.56753103513033   -1.09955840149050
C         -17.15606859518736   -7.47510926389514   -1.05583931979302
N         -16.07770158860567   -7.12299616993326   -0.87015974201919
C         -20.90601818462275   -7.90029309949452   -1.74550765421008
C         -21.83305920979736   -6.85819822398501   -1.98892413211115
C         -23.16408407181349   -7.09115816974678   -2.22973415377867
C         -23.60486333003023   -8.41944692241877   -2.23025337759697
C         -22.67207103373929   -9.45357145115114   -1.98766891998398
C         -21.32399622462124   -9.21696858163846   -1.74443358117522
S         -23.42675553415631  -11.01883783201423   -2.03181722781992
C         -24.96465694063101  -10.27072871422560   -2.37019285230065
C         -24.91818261713306   -8.92004379341775   -2.44725075785556
Br        -26.48769084318874  -11.34448401501512   -2.58898330328770
C         -21.13051376713293   -5.55834112403185   -1.92934014259322
O         -21.63262374938685   -4.46327558489757   -2.09532166649658
C         -19.72322832169186   -5.88077198414545   -1.62580983446261
C         -18.72338347653621   -4.94454483666734   -1.45204325901003
C         -18.88663137172131   -3.56732990695246   -1.55774818085723
C         -17.85527703158120   -2.67408334358341   -1.33555473960026
C         -17.92894503054270   -1.26415625282464   -1.41106202867545
C         -16.75845983795806   -0.62933749487665   -1.11349227113472
C         -15.70413620023677   -1.50981931621714   -0.78978545466918
S         -16.23927468982511   -3.17010832955675   -0.88565813410478
C         -14.40871707482255   -1.19648862059397   -0.41219805989385
C         -13.83577231088486    0.09040969406084   -0.25860663949969
C         -12.54784509216966    0.05756236867504    0.17106468503861
C         -12.03072025878861   -1.25563457149324    0.36171690226140
S         -13.24815188905936   -2.43911094613013   -0.04436969395168
C         -10.80160998264604   -1.53824072582648    0.90302192594729
C         -10.21495999145198   -2.80438127939366    1.08954201064504
S          -9.01695240747288   -2.98756473956662    2.37761031397275
C         -10.38892929492352   -4.02559207095982    0.46158757572508
C         -11.08670927060321   -4.57297706296741   -0.71307555039375
O         -11.73070901138500   -4.00487953287892   -1.56395401558620
N         -10.81586565189815   -5.93249795944228   -0.69819705525593
C         -11.39585654008166   -6.85964439570562   -1.64746790625580
C         -12.76668083092324   -7.33858083864386   -1.18552881546244
C          -9.97573646209884   -6.32953529888449    0.33364402609791
O          -9.68924132272399   -7.46640293010722    0.60462761960621
C          -9.61468539702783   -5.06888176994454    1.01192530127250
C          -8.80211102199116   -4.68895357313234    2.05166731759007
C          -7.85905430470199   -5.50868753047313    2.72715014092713
O          -7.55702375545049   -5.32224543931875    4.03977696901606
C          -7.13515099764787   -6.57837638911863    2.25049070744992
C          -6.76262149369673   -7.31253315578115    1.03209472662611
O          -7.04436922299038   -7.12944134880597   -0.12148666058824
N          -5.87721534215982   -8.27776098753214    1.50203154883548
C          -5.57670715823236   -8.20455119143881    2.86171843234926
O          -4.80879310855339   -8.93397086567786    3.43867397846091
C          -6.37800418551954   -7.07835124116629    3.33587644896033
C          -6.66706549083291   -6.27851277685444    4.43580848533801
C          -6.22668719874514   -6.30778144018067    5.77259415588741
C          -5.35508867370236   -7.25281639705649    6.23981298398982
C          -4.91719348649564   -7.31435494491011    7.56725957709916
C          -4.04331040667619   -8.26201103526626    8.04768350637957
C          -3.57569011826021   -8.37763137289422    9.38231615177561
C          -2.71549025968098   -9.41021711725414    9.58497554907877
C          -2.45219357911877  -10.17057638049302    8.41866934001335
S          -3.34391000659586   -9.52232218704555    7.05471828389272
C          -1.62799658912622  -11.26681591603176    8.29909385234876
C          -0.85615140164844  -11.88022488137091    9.32773365842327
C          -0.13396795460692  -12.94614359159623    8.91963095970228
C          -0.28062303950294  -13.26086540111426    7.52676257096118
S          -1.39889038406220  -12.10499564932614    6.78313313100787
C           0.30669612292005  -14.25292689325236    6.84409041296957
H         -23.84581460713675   -6.27506093464739   -2.41096104060199
H         -20.65453455502716  -10.04097388589418   -1.56401217335229
H         -25.77286628972561   -8.30031365211254   -2.64799439930556
H         -17.72925775991525   -5.29702263002059   -1.20591232403092
H         -19.85830840742388   -3.17125939956519   -1.81518867932630
H         -18.84312411256866   -0.76576939710896   -1.68021229246843
H         -16.63044890743040    0.43814990026289   -1.11808330646943
H         -14.38765037450268    0.99054900975901   -0.46013446451528
H         -11.94221312717958    0.92697814143716    0.35627133721853
H         -10.23938800573706   -0.69703221787516    1.28894841131670
H         -10.70349580871237   -7.69968619550884   -1.73675813243783
H         -11.47568292301427   -6.33985239204267   -2.60512519502074
H         -12.68652355705507   -7.83936491795784   -0.22410364889486
H         -13.17526252553664   -8.03947768441595   -1.90729479117379
H         -13.45513557997917   -6.50322183979536   -1.09094560016160
H          -5.45127378076354   -8.96144833928160    0.89281043763887
H          -6.62090950434340   -5.54527158684863    6.42924398260237
H          -4.98089185888598   -8.00005529019310    5.55147356543564
H          -5.28593882199373   -6.57790425796991    8.26985417614386
H          -3.89450651979615   -7.69135463969307   10.14702064644822
H          -2.26570767779316   -9.64551142489306   10.53276262573032
H          -0.86671268004716  -11.50501236500644   10.33553133054097
H           0.50696925714004  -13.53511586697201    9.55135029488371
H           0.98144190478676  -14.93329021957082    7.33314662140988
H           0.12705266693834  -14.39960422011233    5.79484132486336
