117
 SCF done       -217.331454997395          0.000919044687
C         -10.51744650841442    0.05237791341943   -4.42597998599191
C         -10.18343089743489    0.62464088127480   -5.62443393565607
C         -10.25950646632629   -0.04175758391269   -6.86555877323194
N         -10.28938175540932   -0.53754848077099   -7.90009594207681
C          -9.75916519130318    1.96044596211382   -5.79031953784014
N          -9.43522972038058    3.04039590686155   -6.00613103619666
C         -11.08448780326806   -1.27661572991418   -4.24256110151412
C         -11.44790349601456   -1.43103630315366   -2.88213441730809
C         -12.02992693471666   -2.57645813360030   -2.39621109788665
C         -12.26811249315940   -3.61965428852396   -3.29681252011832
C         -11.89626918167638   -3.45896739218904   -4.65323637412330
C         -11.30548557187769   -2.30144289814566   -5.14396673228678
S         -12.27409061009964   -4.87222846197532   -5.59063511569047
C         -12.92095776025447   -5.64704928377983   -4.16909839119059
C         -12.85674671219572   -4.88941286541091   -3.04827085216262
Br        -13.61767724283795   -7.38321626836782   -4.29699481554193
C         -11.09322240468634   -0.21006257329604   -2.13701008837390
O         -11.19969612508100   -0.03996012814609   -0.93810895776929
C         -10.48799159382174    0.70385065174592   -3.12835746803401
C          -9.85733350134485    1.87908252306172   -2.84274092148415
C          -9.94100772579602    2.66147424191593   -1.66442250631843
S          -8.49560827586738    3.54174027087992   -1.23456963520553
C          -9.26535869682331    4.22118511206432    0.16160132006732
C         -10.59346327303305    3.82347948398917    0.24608871913612
C         -10.98776570943247    2.96457342239820   -0.79619453123683
C         -12.40971642032203    2.53509048845253   -0.94010299371089
S         -12.99646075776272    2.54342835544511   -2.68532678316440
C         -13.34756666687694    3.37572496550980   -0.08207552909988
C         -12.80175926869992    3.45243892855920    1.33725294778254
C         -11.51628550371838    4.27313112936166    1.33649724306518
C          -8.57243186108616    5.08269682086429    1.05249481103154
C          -7.30990683864521    5.53006470045333    0.86167653813795
C          -6.64418068588503    6.41084620069819    1.75418715368302
O          -7.22517493502576    6.80916416239902    2.92290855133839
C          -5.41236978167608    7.02394185785232    1.65462132297581
C          -4.21727780320543    7.16499942844611    0.81804159582966
O          -3.92313101583569    6.66641456352979   -0.23580997594978
N          -3.42088040921627    8.05730729294150    1.53623217054270
C          -3.95832338671041    8.50958868808073    2.73958483456882
O          -3.42453514961826    9.27884021990168    3.49431019935090
C          -5.25668933290699    7.83124941420568    2.81048457272286
C          -6.39360086681492    7.67076387684456    3.57001727068133
C          -6.75112541750964    8.23496073968553    4.83370556852118
C          -7.83527591988854    7.87049294260416    5.53235821223802
C          -8.21370720667569    8.48733076925160    6.80116373292080
C          -8.55991863860462    9.80107626136944    6.83510476918352
S          -9.10022045632079   10.35701319604897    8.37166588048446
C          -8.81767611993611    8.78038430621875    9.03663889827121
C          -8.32410958735288    7.86405181363593    8.09634808927227
C          -7.94503800010737    6.57225761823828    8.53113325268045
C          -7.29639195903715    5.65084678315117    7.53064712709653
C          -5.78374575989009    5.88130058760822    7.48192423161373
C          -8.09641821346201    6.20535362240598    9.86190011540921
C          -7.61888621276434    4.85348194174413   10.32907059551055
C          -8.77211222436840    3.85273109108763   10.42810247422641
C          -8.69884948185596    7.09699663290110   10.78822105824180
C          -9.08077376497327    6.93977431264163   12.18003754168871
C          -9.63172613838554    8.09101081811417   12.68585510713221
S          -9.71486717388087    9.39235828786705   11.59060541461718
C          -9.03025781715329    8.38895363034445   10.34812957910177
C          -8.94758517511722    5.79384296761077   13.03460770130304
C          -9.74648256628466    5.52437776406591   14.09565423775755
C          -9.60423465064328    4.38259631538607   14.92670137752360
C          -8.52161851379317    3.58400686516597   15.15065326675829
C          -7.10529285271809    3.71955930212052   14.88246878088118
C          -6.38191595482198    4.88392310269393   14.82377861544606
C          -4.98427270151984    4.93450891468378   14.65132621537512
N          -3.85274494389722    5.03006588006620   14.48196304399872
C          -6.94054132214832    6.16620670077090   14.99150388309422
N          -7.33877021746277    7.23240767423916   15.14004125499712
C          -6.52006496066279    2.38308938346533   14.95202372155087
C          -7.48384462863389    1.49161417544176   15.48572769238211
C          -8.74735801711400    2.22284994093294   15.70920387750305
O          -9.77055576991941    1.80091675865280   16.19774849044050
C          -7.21367282590146    0.16453039171495   15.71518826576751
C          -5.93755492377626   -0.30755598928311   15.38958083680637
C          -4.98893608471125    0.58659470925366   14.83816321475671
C          -5.25852299449968    1.93134090749791   14.61504914938400
S          -3.48319607867479   -0.20974520725467   14.49561165490906
C          -4.13650425281633   -1.71120250569738   15.09542980490150
C          -5.41676620636412   -1.62345852512055   15.52780588636106
Br         -3.06741050693889   -3.25233829722222   15.08982704074491
H         -12.29729735149026   -2.66467778496186   -1.35480119664337
H         -11.03576744192462   -2.22831265456539   -6.18427108608135
H         -13.20904643688334   -5.21156079472906   -2.08541976177079
H          -9.15997944096108    2.26388602651667   -3.57821514527000
H         -12.49221080846425    1.48109749822518   -0.65027466806083
H         -12.78032139600560    3.83990264145404   -2.90090235439129
H         -14.34054326346955    2.92517741517196   -0.09600829666936
H         -13.42834950820258    4.38374808800034   -0.49814961186777
H         -13.53443949430902    3.91248758790815    2.00136622881434
H         -12.59690090938247    2.44353060772604    1.70021510068185
H         -11.01558248099789    4.18552694870255    2.30317353854471
H         -11.75631668650141    5.33099041807702    1.18483158958767
H          -9.11325704419268    5.40758344505385    1.93062430954994
H          -6.74294775749650    5.24839022097014   -0.01414318613348
H          -2.51421013056435    8.35547783798582    1.20518351592794
H          -6.05468494058533    8.96588005578025    5.21790308485003
H          -8.51069756082024    7.12940956286538    5.12193962439292
H          -8.56387046141145   10.48034022615263    6.00487357363391
H          -7.70550225540869    5.84489928855013    6.54203070177195
H          -7.50873033876787    4.60792265397063    7.76230419089833
H          -5.56820380558482    6.90432030810865    7.18352395859828
H          -5.32315451663431    5.20861270202762    6.76202723741148
H          -5.33065196484875    5.71099258654192    8.45563575484561
H          -7.11690874974940    4.96553064142401   11.28995024325204
H          -6.86757731799739    4.45883467227433    9.64920740778289
H          -9.56188893611954    4.22524898518048   11.07633954642433
H          -8.41906155179266    2.90200310003536   10.82261196253571
H          -9.20041164030028    3.67918429227135    9.44335592769554
H          -9.94406191103184    8.24800073592978   13.69933204578160
H          -8.17559559981973    5.07819692146735   12.80800690249270
H         -10.61418090076397    6.14026812139264   14.28415324405691
H         -10.51217427408264    4.03413015809575   15.41090991999071
H          -7.96231378065194   -0.48974596828917   16.13339950390180
H          -4.50567710780349    2.57365770185400   14.18890854344787
H          -5.97276965841170   -2.45137790522033   15.92814875545264
