117
 SCF done       -210.522514703413          0.000787256650
C          -5.15261538485825    4.00084688476709   -9.60636668896059
C          -5.53835230288313    4.85753852588769  -10.60928814014527
C          -5.29828400805104    4.63167023370109  -11.97958299153868
N          -5.13918393663362    4.50766395221637  -13.11044746713706
C          -6.20854130738687    6.08468659033916  -10.43302038409749
N          -6.75334195110217    7.09542319695270  -10.38591648733496
C          -4.43569127372510    2.74415656855507   -9.80920686805471
C          -4.15844799583824    2.17046475083564   -8.54533351377103
C          -3.49371788144689    0.97785758731350   -8.40144717711671
C          -3.08329601734071    0.31469554104791   -9.56298579511297
C          -3.36681296285081    0.89348206116290  -10.82176216968309
C          -4.03791906899886    2.10167341845674  -10.96678631220755
S          -2.77693650787447   -0.09315885100537  -12.12618723878101
C          -2.16639778973573   -1.25298893914819  -10.97645418742348
C          -2.39068364521795   -0.92161914898087   -9.68322188020215
Br         -1.29243981840416   -2.79477727354612  -11.59235303919418
C          -4.70113791188922    3.04319606246314   -7.48115361906857
O          -4.62507701697475    2.84158355305024   -6.28674364172513
C          -5.34788238982883    4.17253809206924   -8.18417200365577
C          -6.04697163735460    5.18293143852876   -7.57010454195378
C          -6.21608578127516    5.33064829130623   -6.18392514444585
C          -6.98321766626006    6.34181351842553   -5.67529179051189
C          -7.20952946404550    6.56363719713935   -4.30739959044533
O          -8.03826615084901    7.57384886464936   -3.92296207611191
C          -8.10290480319343    7.59276563390451   -2.56977979592440
C          -7.29378099923194    6.57450131285836   -2.06333392092550
C          -6.72494208416000    5.91372520292488   -3.16396215824368
O          -5.88186191550729    4.87177386005246   -3.13700500387739
O          -7.05503108134471    6.22189216454361   -0.77078468162263
C          -8.91427347047986    8.53257497890902   -1.89166178413258
C          -9.70725381525019    9.42940313372122   -2.54226188120004
C         -10.56421476747562   10.38953546057704   -1.95650374626421
C         -10.69104058152455   10.67414541148774   -0.62979782217214
C         -11.58957296831203   11.63208350518026   -0.11450899819952
S         -12.69086997946379   12.49798776881144   -1.14672753054883
C         -13.36554255154094   13.37538054277939    0.20607508084536
C         -12.75964263200769   12.97557775427997    1.40224026255116
C         -11.76275848323680   12.01556372241686    1.21632996957043
C         -10.96373754184041   11.44447849951114    2.34781430673516
C         -11.12967334143570   12.27956179142376    3.61410957463054
C         -12.61923195333676   12.55612016902774    3.86684958855871
N         -12.92212350058190   13.16666871260031    5.14627112008695
C         -13.15008107474840   13.46831263453266    2.75723896779681
C         -14.37650490157485   14.30891384162664   -0.08238559087834
C         -14.90837654708055   15.26201847368293    0.74679923994574
C         -15.92856816022986   16.12651699149285    0.34163100552708
C         -16.44811751025690   17.13333342714319    1.12592593116326
C         -17.48504567318443   18.02910824598817    0.78524463230334
C         -17.78236225117672   18.93748317923501    1.75942350413518
C         -16.98975570503724   18.80933913071351    2.91889729389175
S         -15.86238691702464   17.48982322138339    2.74286550167477
C         -17.03027154295083   19.58829281039045    4.06576765275463
C         -17.87813132688534   20.68171806964481    4.33487438824633
C         -17.66170191998554   21.25546438926194    5.55436151527580
C         -16.62904197123731   20.64897100630096    6.30381231179889
S         -15.95476070555142   19.30474547407389    5.41480725449424
C         -16.19642575611705   21.01641228968148    7.56183239260246
C         -15.13973637618880   20.39817623579134    8.22488468193067
C         -14.69373016970428   20.65723900640993    9.49996314460462
C         -13.33048479548803   20.23416310921262    9.89086635042115
O         -12.60228083330724   19.46362449362998    9.30161273236923
C         -13.03080230843963   21.00551058688229   11.11385170982865
C         -14.15283196682730   21.78093512711494   11.46912732997979
C         -15.25580870110393   21.46362382905979   10.54935551366134
C         -16.60621966126807   21.67654576320709   10.75264408091488
C         -17.24236769433465   22.68276395711587   11.61588487922116
O         -16.74422490277725   23.66330941491293   12.13551174188444
C         -18.69094045824697   22.35759016652553   11.64108341013809
C         -18.93488723583129   21.25575835708663   10.81984042801614
C         -17.66187535785164   20.79676213674507   10.21015025735606
O         -17.54800558598825   19.83587646742102    9.47407508505988
C         -20.21140761985590   20.74902271558496   10.66965135181749
C         -21.24559530965920   21.37271501981776   11.35681335933500
C         -21.00317890360130   22.46909049467218   12.17234180829023
C         -19.71931248558499   22.97906102326244   12.32248892347218
C         -14.07267900293071   22.60701800340478   12.57833520825072
C         -12.88985284328216   22.63946577342844   13.30780611091827
C         -11.79599098615346   21.86555118508469   12.95440605537731
C         -11.85969027160794   21.03583878414667   11.84289758454971
H          -3.29805216912953    0.56782530481617   -7.42300527762302
H          -4.23042169953882    2.49826805425626  -11.94942251614650
H          -2.08249122663673   -1.52249478685536   -8.84710471133785
H          -6.52120355595572    5.92964882889110   -8.19462277044190
H          -5.73813503423356    4.62878106117012   -5.51838513003011
H          -7.47477691679760    7.03577742073502   -6.34564952623444
H          -5.71584459282946    4.62505658600245   -2.21697305775784
H          -7.55629980837334    6.79213116667382   -0.17884264768971
H          -8.89088185151490    8.49534397355891   -0.81138608394392
H          -9.69483581651846    9.39246219128759   -3.62264727414217
H         -11.17862473693867   10.95726430998630   -2.64404129394238
H         -10.08130966670453   10.15669700981101    0.09707153745294
H          -9.90790743971550   11.39511977372324    2.07013755322486
H         -11.30301142390605   10.42058196954257    2.53935597849411
H         -10.60167324244296   13.23036239454161    3.50449613028415
H         -10.69555582943974   11.74752298807633    4.46416833518199
H         -13.16159659233115   11.60269904543402    3.83410536783894
H         -12.43177571650719   14.04910057551157    5.24883636346258
H         -12.64195537879100   12.56399972402466    5.91137600399007
H         -12.74807967955240   14.47510034615014    2.91386166905392
H         -14.23625851342371   13.52982201591208    2.84013330904971
H         -14.74570210424236   14.27817593201581   -1.10109607742267
H         -14.53047792438059   15.39275599707846    1.74845566006768
H         -16.34543025437216   16.00825869787979   -0.65029991833602
H         -17.98151205523946   17.97607055130060   -0.16766668258891
H         -18.54333545460532   19.69145851840493    1.67014506590115
H         -18.61785161930143   21.01914896576493    3.63123839457913
H         -18.21026022608045   22.09799656107999    5.93679639868756
H         -16.69982224756678   21.85081908182235    8.03066391024140
H         -14.54887994813443   19.67978088451830    7.66435843733848
H         -20.38938914220489   19.89616580914909   10.03248083176930
H         -22.25428337983671   20.99970486173784   11.25498655854822
H         -21.82553152130466   22.93205687377680   12.69793027293420
H         -19.52053931712248   23.83025516946060   12.95566562422870
H         -14.89810953194718   23.23727055999864   12.86392159883286
H         -12.82527075318900   23.28790446933790   14.16935094215401
H         -10.89149986619704   21.91051950825373   13.54293246166577
H         -11.02338198919692   20.42132102836016   11.54576698358411
