137
 SCF done       -239.100057336013          0.000603826399
C          -0.32469612573353    2.32393847605632   -2.48070614679803
C          -0.17102750166206    1.05404566507363   -1.99286609276670
C           0.40129079507808   -0.00881860936184   -2.72358065749153
N           0.86416513750772   -0.90715173061981   -3.26760712595064
C          -0.58555180521297    0.62172912416617   -0.71453074533114
N          -0.90806640091068    0.18966942281557    0.29906577842687
C           0.01300969531843    2.76663903043654   -3.82593945153656
C          -0.42711232782672    4.10285726766415   -3.98834798495260
C          -0.25203795526973    4.80474969633547   -5.15661498704346
C           0.38862929783806    4.15641358124447   -6.21689261262797
C           0.82975189017348    2.82176705213224   -6.04466280023710
C           0.65233717338938    2.11256832099067   -4.86375227619544
S           1.60595909730416    2.21603532716191   -7.47615319408829
C           1.32993684926355    3.74080261788186   -8.27595031498127
C           0.68950594075445    4.65804608718094   -7.51247982576984
Br          1.91621761071928    3.97887518452847  -10.04114978563948
C          -1.05194555805247    4.57712279005862   -2.73882112676101
O          -1.49067755200065    5.68885893834414   -2.53982295977867
C          -0.92586075586063    3.44935798231262   -1.77812805984544
C          -1.11146368130125    3.53518330668709   -0.43539174024668
C          -1.75494847171758    4.59955776974884    0.29003676385175
C          -2.90406535639146    5.24496152978239   -0.19287367012310
C          -3.47176518569982    6.25375353289231    0.54804105115322
C          -2.91241216411037    6.62289480276921    1.78690945674237
C          -1.79119727830702    5.97095731431059    2.28612310867978
C          -1.23292416377073    4.95420546257937    1.54403251523748
C          -3.72103609187091    7.66727860824353    2.36978263632411
C          -4.80001015483612    7.92915115870016    1.50634935456844
C          -4.70735005392933    7.07646730946664    0.25883302861308
C          -4.51151550404090    8.04112865662043   -0.93447737950176
C          -4.30317180807165    7.39237807939847   -2.29580475990325
C          -5.95052900351022    6.19108968631629    0.07486319179996
C          -6.25488090639233    5.34763565465507    1.30788667407835
C          -5.73101007973223    8.88685817792782    1.82085685655738
C          -5.59405909958783    9.62400951034927    3.00979395771819
C          -4.50605769487971    9.35134360475322    3.85718426213754
C          -3.57876060651528    8.37817885877475    3.55540903608408
C          -6.49564588627953   10.68287885598426    3.37501281110280
C          -7.66918553145282   10.97039863815295    2.76528293742086
C          -8.51592517509233   12.07040582742224    3.08804332972649
C          -9.74082999686929   12.23251722666943    2.39235950576539
C         -10.62574957484371   13.35284390654592    2.61531116376912
N         -11.73671363846596   13.48065393783092    1.86632484263519
C         -12.01434584844290   12.57464074613541    0.96498169350529
C         -11.15525029526753   11.44301538746165    0.76859923645089
N         -10.06058910238552   11.30818069255178    1.47330081058711
C         -11.47579211956362   10.46162883856256   -0.20149114857923
N         -11.75029860006453    9.68708378058002   -0.99980037572171
C         -13.18637095692262   12.73261513433891    0.18305834847532
N         -14.13208526882070   12.85072972858313   -0.45224300332477
C         -10.32106994503702   14.36042371450794    3.54833512516690
C          -9.09925078793717   14.20861046517535    4.23183069827183
C          -8.21780395673387   13.08227338751096    4.02693840192314
N          -7.13585769733814   13.16807068370063    4.80597720675755
S          -7.22230017353484   14.50077082560966    5.69385120261616
N          -8.62295889809201   15.05155969259106    5.15211366756443
C         -11.11920916930649   15.53858532653774    3.76667679706699
S         -10.28910936143009   17.05328983199004    3.96002781168441
C         -11.77763282190096   17.91755419054199    4.14585790457077
C         -12.85294222960088   17.05380802462993    4.10135149473963
C         -12.48339873211599   15.71185441685194    3.86893206638594
C         -13.49996831760837   14.61682186588754    3.77416400857589
C         -14.83230094340598   15.05417170146466    4.38344660164824
N         -15.83240653368744   13.98726034381995    4.09027830822180
O         -15.62041293247298   12.91185031769511    4.58653469365178
O         -16.75273197785550   14.27302499215312    3.36830922513746
C         -15.24983126258137   16.38517822812144    3.78196250682442
N         -16.60350058841239   16.79460099402261    4.25492347128386
O         -17.23940716025139   17.50566925149548    3.52665488462975
O         -16.91728692160575   16.44305081602085    5.36606981182118
C         -14.28416734706343   17.47110357676860    4.26822335574958
C         -11.74056737644120   19.36162580504100    4.28490733843310
C         -12.64806612833510   20.04987663573196    5.10043400893105
C         -12.57188222607171   21.42050683156976    5.19313745914305
C         -11.56820608591812   22.12535710916760    4.50715780401695
C         -10.65885016059058   21.45159749641635    3.70549408494905
C         -10.75435779204823   20.07953790703751    3.59898874065236
C         -11.66311653120389   23.52672827927027    4.85826741953399
C         -12.71802143158662   23.68561367184608    5.76953013146474
C         -13.42472967469656   22.36725726632081    6.00703342597062
C         -14.85265690507215   22.50736904916814    5.42760850229045
C         -15.66655627262661   21.22318419567974    5.34262757495876
C         -13.45344676191601   21.98650553372092    7.49474273447028
C         -12.05925292035444   21.94580953645206    8.11010026210091
C         -13.00667598649979   24.92459746655991    6.28985890014245
C         -12.24137621513820   26.03601831634870    5.91340759835620
C         -11.19632410510085   25.85990602848872    5.00078682956670
C         -10.90123992639120   24.61927462462746    4.47159037377275
C         -12.57070087695436   27.33080485667843    6.49323428837175
C         -11.98000889888025   28.49366903700560    6.24122614454049
H          -0.59902715416701    5.82205530835829   -5.24841997080851
H           1.01170195766948    1.10066090548820   -4.77916948919141
H           0.44033449876712    5.64848715441908   -7.84695146422900
H          -0.69253433809467    2.75061704565873    0.18445967455170
H          -3.35227778715120    4.90735293207095   -1.11244079509631
H          -1.37570390481676    6.24431819304885    3.24417178315355
H          -0.36228912089096    4.43179982457366    1.91336102606419
H          -3.64910240375601    8.67530093208210   -0.71307004964359
H          -5.39225255198559    8.68641102897707   -0.98014898702950
H          -3.37105706299695    6.83742052996704   -2.32598318718653
H          -4.25256188070574    8.17133985966058   -3.05387299195890
H          -5.12661544620047    6.73086139749827   -2.55198895654868
H          -5.79192245275021    5.52896520403964   -0.77668306607818
H          -6.80718746249816    6.82976288049618   -0.14924205665816
H          -5.41765843869610    4.69379751925417    1.54353733594512
H          -7.13241224915835    4.73060929607650    1.12996361952459
H          -6.44965401396018    5.97958167795935    2.17167822296983
H          -6.55347750611701    9.08872182789869    1.15284066303337
H          -4.40558961469532    9.92298440383566    4.76847840599134
H          -2.75180445407125    8.18094367144621    4.22079798687353
H          -6.18786205036807   11.30064300473494    4.20756887705247
H          -8.04426494533165   10.34888996875715    1.96517462087953
H         -13.13973266125786   13.71599724569934    4.27503515846119
H         -13.65354408508162   14.36866525545227    2.71937321599356
H         -14.75805257519505   15.12274455343794    5.47426489097187
H         -15.28611386735519   16.34172588664262    2.68985584082216
H         -14.48763186339932   17.64661602721458    5.33094089575512
H         -14.46638464176469   18.40356817350122    3.72907305248685
H         -13.36036525870445   19.50237838551441    5.69375329538150
H          -9.88357235865215   21.98760397839847    3.17956368502187
H         -10.05746256951722   19.53846178976823    2.97579600420575
H         -14.76728034819432   22.93227913284426    4.42400373203017
H         -15.38905371453332   23.23037048425353    6.04569631963552
H         -15.22105871749166   20.53224003454836    4.63254855665209
H         -16.67158385996019   21.45422904789658    4.99745241582657
H         -15.74875652702815   20.73628203243303    6.31074415972943
H         -13.92195477873908   21.00788442589354    7.60759446153246
H         -14.06586516880455   22.71396460747574    8.03118911586702
H         -11.43559393287564   21.21423877995235    7.60058698562641
H         -12.12090604360480   21.67388344526827    9.16135461711034
H         -11.57719162664560   22.91784505251206    8.03333745598875
H         -13.81688275367991   25.05297068056624    6.99391305408788
H         -10.60288988152653   26.71018240266849    4.70349086297327
H         -10.08913451917383   24.50365282303105    3.76917731167669
H         -13.39092692365112   27.30775038869569    7.20102096775463
H         -11.16072665765180   28.59739062044718    5.55088212668967
H         -12.30123045466933   29.39906593810186    6.72676362455319
