113
 SCF done       -215.696252398871          0.000891583261
C          -5.20512504184433   -2.42116146687144    0.46848251309498
C          -6.08116501254736   -3.04180188913413    1.32817799199311
C          -5.94543316592784   -4.37121203567341    1.77371427835450
N          -5.89458608035436   -5.44554885333881    2.17781294877125
C          -7.23996124339542   -2.46524705015807    1.88437124352989
N          -8.20352442988236   -2.08293033277999    2.38147774429602
C          -4.01834749594786   -3.04766296966864   -0.10998144594019
C          -3.39313602886513   -2.11997141826336   -0.97670597687075
C          -2.24643823697889   -2.41133580597798   -1.67255765024452
C          -1.68436270328891   -3.68156550698945   -1.50310784542199
C          -2.31430580690903   -4.60124653495276   -0.63382267254856
C          -3.47695058309051   -4.30673572960049    0.06837662771994
S          -1.45273331600577   -6.11008686782370   -0.56644991121621
C          -0.27297950555253   -5.48967252630303   -1.69010027066077
C          -0.51048358366000   -4.22110572954741   -2.09798862665758
Br          1.16147902981900   -6.57691627869922   -2.22057622162545
C          -4.16137264763116   -0.85475360982623   -0.97534207161263
O          -3.89501774933457    0.13994456568489   -1.61867463444767
C          -5.28213541956506   -1.07123972850785   -0.03732278415281
C          -6.21508631829216   -0.12044130902592    0.30688618612156
C          -6.27108939145979    1.18641201098586   -0.19668139742335
C          -7.22191548929370    2.06776951464166    0.24477899666501
C          -7.35128310070276    3.39149476852829   -0.19759061503260
O          -8.32040409102526    4.18642091104656    0.33420084262087
C          -8.25883087979689    5.41153425914712   -0.24963024972289
C          -7.20899482284247    5.41230765527035   -1.17325963006995
C          -6.63254013069432    4.13429637072230   -1.14587660197897
O          -5.59676524738306    3.70155317725289   -1.87987727033421
O          -6.74047337264595    6.41339473020705   -1.97009089368917
C          -9.18384070300373    6.38776086707373    0.17765104641396
C          -9.41210806445345    7.61812165298702   -0.37020219281267
C         -10.34762184217960    8.52472003961516    0.15973472346953
C         -10.61203661396158    9.74270866278825   -0.40469591688023
C         -11.52032307678605   10.69962809731286    0.07492156850816
C         -12.24210497539654   10.77335425460984    1.28072883487231
O         -12.15766323238214    9.74418442749507    2.16099131027581
C         -12.60352554118735    9.99776463958250    3.47623634833858
C         -14.00948335747253   10.56877409756869    3.50084056452888
S         -13.98236230430487   12.26941586069965    2.84622780629583
C         -12.95813485759492   11.96221462600683    1.45409431098357
C         -12.80544301317988   12.88892835263125    0.40790380098293
S         -11.83992601384784   12.13960014120980   -0.88162522351275
N         -13.18740402336018   11.56777005575039   -1.82967102937366
C         -12.85601268047555   10.66352288346937   -2.91143839135063
C         -13.23668656482770   14.19700156947925    0.20953508139131
C         -14.01682189087333   14.95542626204507    1.05408509161539
C         -14.43831498625507   16.24820785098176    0.73851717395930
C         -15.23693874008556   17.00695059070514    1.55799326531413
C         -15.70279709480583   18.28660646418535    1.23411658825639
O         -15.37672225627436   18.90186493309724    0.06752572498681
C         -16.00991048397005   20.10735255187830    0.02204498905320
C         -16.75917202416492   20.26758011904356    1.19830134171376
C         -16.56179423346583   19.12037953844226    1.96887322146120
O         -17.08333780162832   18.83723032320826    3.18049973478339
O         -17.54304525950536   21.30992914578657    1.57623290314164
C         -15.87640228964583   20.96641163540987   -1.07637192273531
C         -15.09499190872518   20.68888139182977   -2.16923246649241
C         -14.97488867018398   21.47862908522185   -3.32256036120847
C         -15.53023325104410   22.71908552514696   -3.52967380751195
C         -15.39349403083634   23.48863957252356   -4.69176617865252
C         -14.99353833862737   23.13865471872457   -5.96383679788194
C         -14.90811050958793   21.88865602313720   -6.66680909512260
C         -15.64608245268089   20.74888321970312   -6.43080700036077
C         -15.54419463324302   19.57038113454481   -7.19006813754802
N         -15.47722778933941   18.57051499719351   -7.75354669672524
C         -16.64277288983821   20.65352676837081   -5.44335880594669
N         -17.49586355189826   20.53006053606032   -4.68383917741495
C         -14.08575973163118   22.10785409261242   -7.85724830588048
C         -13.85388871268158   23.49808402027148   -7.99527862398918
C         -14.47638594602196   24.20285623182846   -6.85312674243328
O         -14.52031119089635   25.40025858346063   -6.66404543024521
C         -13.14243351995802   24.02796410361605   -9.04232088301921
C         -12.62196175350436   23.14126893502140   -9.99252413330109
C         -12.84622746066539   21.75463722353981   -9.83730935277242
C         -13.57684608288192   21.21862167499161   -8.78244805072014
S         -12.10433612542988   20.84035527259314  -11.11660865453787
C         -11.51484106409680   22.31633348723786  -11.83424333945444
C         -11.85336928884490   23.43548778531527  -11.15291625326211
Br        -10.50513186304694   22.23787076108861  -13.41433188329436
H          -1.79442518771900   -1.68131908275256   -2.32547355866313
H          -3.91669468339587   -5.04380622469743    0.71862843372878
H           0.11462557017049   -3.68557070774937   -2.78908200174564
H          -6.97108910814908   -0.38877405019291    1.03385492815447
H          -5.54976715942921    1.49758171123260   -0.93611068900887
H          -7.93893935249290    1.75498689207078    0.99345733353617
H          -5.29224233360276    4.42434308321143   -2.44540380197727
H          -7.14096752283822    7.24831734185680   -1.70712298863743
H          -9.78123744492376    6.08685393450612    1.02728584209316
H          -8.88958917467313    7.93043317275675   -1.26626905119465
H         -10.87838037665916    8.23630660157614    1.05256013203733
H         -10.08899223879595   10.01469179781193   -1.31477518813981
H         -11.91275122000738   10.68574360969878    3.98267020011163
H         -12.57136414672359    9.02621015517634    3.97599841573469
H         -14.39045343124798   10.63800164115193    4.51692265446917
H         -14.68275559003059    9.96833701097081    2.88849825499760
H         -13.69853794917669   12.37860492712966   -2.16553902659613
H         -12.34650038388166    9.79881223773216   -2.48898444649786
H         -12.22660375674343   11.11308409555704   -3.68648759883901
H         -13.78779234698829   10.32996870869151   -3.36488615404281
H         -12.92303679843875   14.65445676908986   -0.72186672456106
H         -14.33121750583414   14.54090547443621    1.99973526821976
H         -14.13343094918367   16.67254828076154   -0.20891324468632
H         -15.56481629943451   16.62063201759286    2.51129200166602
H         -17.64793080761792   19.57506260127117    3.44588891057975
H         -17.57820435956820   21.96571878506946    0.87134527877764
H         -16.44561933941295   21.88426088620020   -1.03878716829941
H         -14.54676336383090   19.75746703857394   -2.15064051933241
H         -14.34433542259621   21.07609835936518   -4.10485861868743
H         -16.04953627896850   23.19696138140497   -2.71087767591847
H         -15.55481555239673   24.55695295690392   -4.57670160726679
H         -12.99015630325305   25.09234570815415   -9.12843212090437
H         -13.72023422317410   20.15356116896637   -8.70574268754116
H         -11.57395840312271   24.42889460902717  -11.45304596108336
