121
 SCF done       -221.504501255732          0.000707493296
C          -3.51041017655098   -0.96873969406892   -0.34356399421504
C          -4.34828041401338   -1.85301283342967    0.28548045278010
C          -4.04345605095273   -3.21235167368589    0.50468923245065
N          -3.84540786684699   -4.32187898202077    0.72282097160010
C          -5.63601663776278   -1.53792462774557    0.76767186637873
N          -6.70206168211755   -1.36229814862926    1.15736773650864
C          -2.23369474984626   -1.29586070696739   -0.96401359581850
C          -1.73754906870215   -0.14014934464202   -1.61559166719546
C          -0.55138075445049   -0.13240280097866   -2.30720198192213
C           0.17973417124108   -1.32397743153246   -2.36130582710970
C          -0.32123880852988   -2.47217027399137   -1.70285535938398
C          -1.52052206101970   -2.47957929822611   -1.00178882857280
S           0.74428937016212   -3.83203335111164   -1.88953015260885
C           1.83172063946694   -2.85400800379275   -2.83827836131369
C           1.42073784859131   -1.57480495613220   -3.00771669056237
Br          3.40820460836823   -3.61289400127649   -3.51257750162585
C          -2.67096381536082    0.98234574208619   -1.40432767575194
O          -2.49312281137805    2.13963979452707   -1.72957238546697
C          -3.78131893653998    0.43347065310652   -0.59951173598891
C          -4.76463982709353    1.17290045672071   -0.00110048393154
C          -5.21776095603348    2.46346243236169   -0.34833555650262
S          -5.88302713891413    3.45749972719906    0.92092221589543
C          -6.31461198106958    4.71290180417548   -0.19771374499248
C          -5.98401924976701    4.34743894186697   -1.49586443447848
C          -5.37312817712007    3.08637680962844   -1.58347913848845
C          -5.02913996516562    2.47128845374497   -2.88890007469917
C          -5.79194032137186    3.10070145664476   -4.05253626478663
C          -5.29734491661948    2.45628726687343   -5.35875332795371
O          -4.63072158185218    1.45989712010231   -5.36409902734202
O          -5.68901130671857    3.04362789146875   -6.48377133775946
C          -5.61186908668557    4.62271554496156   -3.99066243017861
O          -6.24171166656714    5.22315985218503   -5.11826843294397
C          -6.25449300844055    5.17872750870859   -2.71084498957715
C          -6.93184525832871    5.87279372997462    0.36431257739924
C          -7.53806298348541    6.89062843514741   -0.27580232551576
C          -8.13420291760517    8.00648184610811    0.44407849496904
C          -9.35307742960388    8.62905109201892    0.11925078916219
N         -10.26806271587126    8.39411150983932   -0.89183672006726
C         -10.06474661542079    7.56778752193745   -2.05517180581111
C         -10.36002271408196    6.09357275789739   -1.78274811405994
C         -11.36429285771164    9.20480914743724   -0.70332829410024
C         -11.13946334917315   10.02568506572398    0.42653865217001
C          -9.86660143691414    9.64468742686598    0.96241134216265
C          -9.17308160987215   10.10097993624372    2.07254259084105
C          -7.95617364883181    9.51807713021879    2.36339785753445
C          -7.46851718129407    8.48828436607448    1.57567784795921
C         -12.05180801016592   10.99355147805825    0.81526019344122
C         -13.18442996961712   11.16998610026579    0.04169053377753
C         -13.41451535569344   10.36823787328448   -1.06277543969077
C         -12.54564606264447    9.34050632481170   -1.45480155907182
C         -12.95596685442081    8.47566931678318   -2.54084866404177
C         -13.62440301608848    8.93864049934966   -3.62572999679461
C         -14.12887596530674    8.16082007680137   -4.68819359426847
C         -14.69321523821122    8.74226659130004   -5.79394948903844
C         -15.22221763318938    8.14666380637282   -6.96605645774030
C         -15.62689536425577    9.03697592274702   -7.91744859351934
C         -15.42606359511830   10.38655377079006   -7.55294821297394
S         -14.78090204998562   10.49213641712434   -5.93832624780881
C         -15.52972422373227   11.55749099808656   -8.28449671535724
C         -15.87183386587419   11.82382555565620   -9.62396253521221
C         -15.57676760652977   13.10041792089201  -10.01790212449389
C         -14.94908332971728   13.88717715239608   -9.02352295391341
S         -14.91844902397192   13.01022378666473   -7.52562172409338
C         -14.42444788605276   15.16678335973153   -9.14601522649699
C         -13.62198663692952   15.84128746797538   -8.23103345299760
C         -12.86584254821369   15.39037431721064   -7.15391361635731
C         -12.29720863175841   14.12605445045747   -6.80875992456135
C         -12.02682589459109   13.06662170125109   -7.65354126596109
C         -11.50513852952049   11.83015024353807   -7.23864983221237
N         -11.12147808137003   10.78275640300982   -6.95717755103260
C         -12.18512068203661   13.12932902070144   -9.04831066439560
N         -12.28058623941365   13.14134275922086  -10.19320444596171
C         -11.89286785579311   14.17931196944648   -5.40620898556106
C         -12.00705446446044   15.51592518335880   -4.95635878447044
C         -12.55422117009993   16.34210156968232   -6.06163299930646
O         -12.74273321903318   17.53952465002963   -6.05562412582468
C         -11.66129902992354   15.89174731268288   -3.68278284727762
C         -11.19309139561339   14.89771870902569   -2.81197394950121
C         -11.11143036298285   13.56290161581800   -3.26576935827369
C         -11.45498601252956   13.18312366047610   -4.55814439421871
S         -10.51013694927995   12.49657573448870   -2.02909890902823
C         -10.35880659692887   13.84911223617383   -0.93952644210005
C         -10.75178195211631   15.03198815840764   -1.46558757648432
Br         -9.66772582814082   13.57920516165733    0.78013968502446
H          -0.20017180760146    0.76243734956745   -2.79621063255336
H          -1.85858180601076   -3.37810613776772   -0.51311711201301
H           1.96858896541068   -0.83733999097469   -3.56533132809905
H          -5.24969673043737    0.74872174025774    0.87095154445164
H          -5.20229367846011    1.39334749390586   -2.86429637215599
H          -3.95528085111070    2.60382272417148   -3.06808525330852
H          -6.86362809123108    2.87594006029503   -3.97917690050265
H          -6.12133468177282    3.90218300442775   -6.30145853238615
H          -4.53547282664419    4.84666666531286   -4.00036094890583
H          -6.02765920578533    6.16141135668121   -5.14447666504762
H          -7.33604997385562    5.21973463436293   -2.88587799395554
H          -5.89742195154763    6.19974351284173   -2.54483985481423
H          -6.94287983396239    5.87402573195592    1.44702656274744
H          -7.59887525684798    6.88937336189542   -1.34846159167155
H          -9.03784345088138    7.69641694175171   -2.40530787931351
H         -10.71846984150113    7.94419946477010   -2.84673142925975
H          -9.68791135646797    5.70049772644861   -1.02330834031773
H         -10.23920949148779    5.51461013562269   -2.69511466450953
H         -11.37892385314069    5.96900001280706   -1.42358867353810
H          -9.57864841005629   10.88989592705389    2.68530592612555
H          -7.38166156559680    9.85510846849922    3.21213955993533
H          -6.51311239361226    8.05167782902904    1.82435687177939
H         -11.87366810931627   11.59424734692975    1.69296145912101
H         -13.90885919770212   11.92510662697957    0.30704482189410
H         -14.33303593266803   10.49589368253952   -1.61512794110912
H         -12.77006949531479    7.41431818208922   -2.45122641223130
H         -13.75879933388795   10.00895576686313   -3.72420538245485
H         -14.05823964080167    7.08264777961376   -4.64260729948602
H         -15.26948734281410    7.07756850673798   -7.07826815614291
H         -16.03294149718845    8.76371120243869   -8.87506058012445
H         -16.29344751472635   11.07233872580914  -10.26724143933762
H         -15.72532013342480   13.47547067877840  -11.01452255407420
H         -14.71448476310850   15.71125211058323  -10.03550835985721
H         -13.60937557024671   16.92370610409912   -8.32811037183555
H         -11.74284647534161   16.91865766333467   -3.36261334998954
H         -11.37990976831907   12.15233821960764   -4.86117307017188
H         -10.72481290377369   15.96444482554241   -0.93154977685670
