102
 SCF done       -192.261544298269          0.000615565586
C         -12.71327910553693    0.54959471418814   -1.29962722616796
C         -13.48841165341571    0.21699749002577   -0.21927189817316
C         -14.76520414992928   -0.37378211763736   -0.31050493894922
N         -15.80670984213868   -0.85568356912110   -0.32740119081795
C         -13.10604634632596    0.43336466157342    1.12040942763747
N         -12.83221788207964    0.59616072615637    2.22320377401437
C         -13.07302918960492    0.36150727228784   -2.70282611298554
C         -12.02472162598819    0.86056102538155   -3.51946780922136
C         -12.07244007810199    0.82133027480264   -4.89223344245947
C         -13.20559461607987    0.26025506379571   -5.49007406604827
C         -14.24525098999202   -0.23680096946534   -4.66813465763634
C         -14.19832418028352   -0.19446822595805   -3.27917419332005
S         -15.54827012690700   -0.89040975395463   -5.61092451327194
C         -14.69235597964839   -0.49403872889144   -7.07735511701225
C         -13.49132238837174    0.09840767522308   -6.87292929963400
Br        -15.46195034094300   -0.90035368259156   -8.73829538823321
C         -10.95629708230272    1.37697626404753   -2.65647475449660
O          -9.89400574182444    1.88583915178191   -3.00283647524287
C         -11.40150140385600    1.15522662996377   -1.27727587817301
C         -10.60145729732784    1.46640008120004   -0.20550867398453
N          -9.40057963065918    2.02320912573637   -0.40051847367446
C          -8.45224741552299    2.26741981237977    0.54000572614364
S          -8.64523054943103    1.75766063424944    2.18924727055130
C          -7.03083973298050    2.29521946258847    2.52055651444930
N          -6.54571563621315    2.14776784908721    3.82930985051587
O          -5.40897207489861    2.51603051802561    4.05184240631827
O          -7.30669035728563    1.65597148091858    4.64172580944965
C          -6.39140563935520    2.82160330341243    1.43121736749457
C          -7.20186831180274    2.83758046736292    0.27986244135036
C          -6.76408684930053    3.38210415630564   -0.98169026885557
C          -7.56025889510237    4.02300622693551   -1.86264407173208
C          -7.14738592864073    4.58670889146821   -3.10482793512169
S          -8.06746798585275    5.90807469657878   -3.74752598965954
C          -7.00718488093328    6.06002426792961   -5.12911918650763
C          -6.00479020545703    5.08614222121302   -5.07901061522025
C          -6.08964060602494    4.26476911170922   -3.94638046925860
C          -5.16310201127618    3.10996842779937   -3.73144694309352
C          -4.53699444365663    2.68160790347838   -5.05461696855878
C          -3.86805956947505    3.89326761985755   -5.71669568399071
N          -3.08328089450298    3.58541523409474   -6.89949064793568
C          -4.93621764249280    4.91984568508008   -6.11081674181609
C          -7.29346243893984    7.11698709011181   -6.01649656798099
C          -6.64797920535268    7.43948755057772   -7.18176412060518
C          -6.90615304380232    8.56068355953640   -7.97956641588166
C          -7.95877015470888    9.50060984206895   -7.95415364920285
C          -9.21886941562550    9.48483016289040   -7.33142103863367
C         -10.06135197924450   10.55277131084324   -7.48777843363482
C          -9.71262100566979   11.64281790677013   -8.30605545164216
C          -8.51348028218808   11.67420353396696   -8.96603404591248
C          -7.60139092166487   10.62379432955220   -8.77858725234378
C          -6.33177975157052   10.40407115040962   -9.35702925054817
C          -5.93877110754138    9.03948231055581   -8.98228760695234
C          -4.90533490351462    8.35286947601706   -9.48225722656217
C          -5.55280749109148   11.24283768735580  -10.14364919263685
C          -5.55533197221489   12.62005686111410  -10.27234480818691
C          -6.03931446239491   13.67849032108980   -9.43635763334800
C          -6.31466918697189   13.61258496297796   -8.08607432932474
C          -6.77251876603072   14.69981231691036   -7.32136087549942
N          -7.17647754605228   15.54539208107313   -6.65612259609535
C          -6.08742291317685   12.47760737714544   -7.28993677628089
N          -5.87311713094542   11.60045311764557   -6.57861274717959
C          -5.96919132055743   14.91909632949362  -10.21082701049933
C          -5.28563290944943   14.65581291255350  -11.42359396443292
C          -4.94576048399530   13.21721613374187  -11.47752608209618
O          -4.32391914897786   12.63754091651223  -12.34477560292013
C          -5.02029228804639   15.63308591676533  -12.34941239045133
C          -5.45977039134104   16.93292314008277  -12.07058644822492
C          -6.15245980671848   17.18236945678352  -10.86429114434964
C          -6.41446090633720   16.19319800704430   -9.92214922779677
S          -6.61029253571591   18.85352498249732  -10.72385944053838
C          -5.86829592295248   19.18949384969264  -12.26555147381991
C          -5.30941876594864   18.10818562311778  -12.85754552458510
Br         -5.90309491737335   20.93721420113977  -12.94841904958195
H         -11.26035407749145    1.20891036231246   -5.48715341043809
H         -15.01534050111690   -0.58694060151380   -2.69731013137755
H         -12.83348330300773    0.40813966982545   -7.66424321068208
H         -10.89879467115038    1.27379974594948    0.81721785398380
H          -9.16031386814339    2.18317055752404   -1.39613513152410
H          -5.38688753517664    3.20197831981843    1.47515320214145
H          -5.70017516299425    3.33109245872125   -1.15316807972886
H          -8.59039653907534    4.22691873570880   -1.59923602709800
H          -5.71138163388797    2.27994412754574   -3.27950879705561
H          -4.36505580534756    3.40211216980189   -3.04130307471145
H          -5.30764960043520    2.28198491087730   -5.71898084322990
H          -3.79898181590819    1.89595737496341   -4.87685024281247
H          -3.18351962313512    4.35164389375273   -4.99300269964006
H          -3.64404384499454    3.07235329764827   -7.57265021660120
H          -2.28443580755007    3.00894753424216   -6.66108774919391
H          -5.39459149505917    4.59642946169566   -7.05184691965305
H          -4.44040373236406    5.87520731123969   -6.29269154255396
H          -8.09076582206872    7.76434023262327   -5.68238330970102
H          -5.81329369177907    6.83313953601642   -7.49193005849358
H          -9.54515208233154    8.62513526729412   -6.76809824840072
H         -11.02742260422472   10.55186449081729   -7.00552088309699
H         -10.41925287937856   12.44981054536778   -8.43147702835156
H          -8.28352113960366   12.47698602551529   -9.64943618499021
H          -4.25454336159027    8.77469093498171  -10.22861827228476
H          -4.68865834215056    7.33944314333191   -9.19053257143849
H          -4.83282578214841   10.76295922814578  -10.80087153599513
H          -4.48748938740442   15.40640459992588  -13.25954268482667
H          -6.94730143110741   16.43222460887249   -9.01683126958413
H          -4.81078210229315   18.13533656018647  -13.80922451225826
