97
 SCF done       -175.123389102755          0.000424897707
C          -4.40779138360609    2.29035652629731    1.36298511411345
C          -3.66981105560197    3.08228612534805    2.21051002772850
C          -4.11892859073667    4.31024634664702    2.73395425236575
N          -4.43048951489780    5.31744354472151    3.19045114317931
C          -2.39492466539827    2.75506270288148    2.71397488287983
N          -1.37255114620885    2.54195633791788    3.19340698560679
C          -5.78222944574182    2.54543222634916    0.94974785242436
C          -6.24686030237690    1.42735434827515    0.21580265351270
C          -7.51872507351533    1.35439155489388   -0.29479305698469
C          -8.37626285935014    2.43772025680066   -0.07044301157514
C          -7.90060063705338    3.55339578301121    0.65652388896987
C          -6.61268402895241    3.62762663991071    1.17334077846638
S          -9.12006739393222    4.78296892196478    0.81109976769685
C         -10.23826539887114    3.79109748316941   -0.08681558253731
C          -9.72665520322117    2.60228671041123   -0.48445484036353
Br        -11.97759988877566    4.41650579857758   -0.41224928082873
C          -5.16735280359358    0.42295076202691    0.11417024919600
O          -5.22539916294671   -0.63079715278376   -0.48721402436575
C          -4.01179671852557    1.01037382960884    0.81988414918079
C          -2.73505132111057    0.50976187231738    0.81515458057496
C          -2.29580888566506   -0.77189132500786    0.41937421091064
S          -0.70031241317453   -0.85774560862743   -0.29978682608463
C          -0.90602829710781   -2.52252978100559   -0.63916627389717
C          -2.09398348269838   -3.02103195179292   -0.19764334395532
C          -2.49849787296379   -4.44933402868346   -0.34795887598301
C          -2.89386476042256   -2.03355426930900    0.44749028505142
C          -4.11593016369382   -2.36819275220835    1.12528976148387
C          -4.58963821622753   -1.74429141808128    2.22211037513308
C          -5.84514709436626   -2.05347949037497    2.82437828069991
C          -6.39699404350406   -1.28538052615173    3.78582750839646
C          -7.69221202191789   -1.45651010308617    4.39241665515840
C          -8.33737893354214   -2.59859082286177    4.66784945779571
C          -7.78829637512983   -3.97228769922988    4.44410455881957
C          -9.71355283779418   -2.55947013215836    5.29123065999717
N         -10.64444343967149   -3.37289393232502    4.54981730430153
C         -11.16365792725349   -4.53078809768537    4.99480260449351
C         -11.84963869902425   -5.41064354175384    4.21274473496862
C         -12.48315001132259   -6.59329408201353    4.64063073157217
C         -12.67178600758661   -7.08949639425470    5.90703543498208
C         -13.34884865662009   -8.29713926770494    6.20882641657208
C         -13.46728493366438   -8.57211680343490    7.53739579714321
C         -12.88771476874629   -7.59819630042753    8.37861145311751
S         -12.17208023138300   -6.32618830436078    7.41546120209000
C         -12.85591712194871   -7.57170898966581    9.75945844586798
C         -13.38891509457618   -8.51791905455168   10.65894635856654
C         -13.20770442743632   -8.19345259054533   11.96913485125322
C         -12.52131737216238   -6.97284713584493   12.18482464136679
S         -12.10680954921994   -6.25195929840737   10.64373243208233
C         -12.24302271476296   -6.44757540737982   13.42555810514872
C         -11.57369633349224   -5.25601197083967   13.72955693177386
S         -10.92327575025503   -4.27975687137913   12.43509794867839
C         -10.27461320108084   -3.13113939165618   13.50660576038167
C         -10.53352728866607   -3.44698628380490   14.82153597561884
C         -11.28721935095478   -4.65980584114070   14.98036254659925
C         -11.61856173782989   -5.04194446546588   16.30789315602972
C         -12.43304416887831   -6.25517615445968   16.63828231286876
F         -11.83973805166045   -7.41654231027566   16.28429803814145
F         -12.67898176003287   -6.37985152758361   17.95262107764552
F         -13.64947589938321   -6.26042679068267   16.05388752977037
C         -11.19606032978198   -4.26979492119451   17.36493516982766
C         -10.44585409759642   -3.09775029074485   17.19903925413461
C         -10.11139993854464   -2.66987016304363   15.94116578703038
O          -9.40463890904907   -1.55757252922839   15.63839386251576
C          -8.96050481442756   -0.73940129415705   16.69636025109793
H          -7.84419938966133    0.48808373593848   -0.84902618012577
H          -6.29513969719761    4.50202074417077    1.71637350734225
H         -10.27657277451138    1.87131580538324   -1.04864699574152
H          -1.93351568155079    1.19598773426558    1.06607646636275
H          -0.12747483625759   -3.05349266192087   -1.15216859564946
H          -1.72132275020179   -5.01076169916214   -0.85967637830067
H          -3.41909083996921   -4.52013117917098   -0.92600417042457
H          -2.67266293248437   -4.90043691108062    0.62797121646646
H          -4.66087298761017   -3.21167636872670    0.72410528482017
H          -4.02242253191418   -0.93652369283699    2.66632277082644
H          -6.39069428755429   -2.88888132249118    2.41101355214671
H          -5.85732292029369   -0.39980718337857    4.10216537656402
H          -8.16674980714408   -0.52830035990180    4.69249962912762
H          -6.70133469481883   -3.95716315793359    4.45514478768650
H          -8.11380311926944   -4.37620470402089    3.48481592081206
H          -8.14445926902540   -4.64745796838043    5.22048377212998
H         -10.08044101830660   -1.52726948457279    5.32514295125778
H          -9.67425994652003   -2.94291461519325    6.31552768172258
H         -10.72987590690661   -3.16595531826787    3.56487081335720
H         -11.01711927591379   -4.71848918936464    6.04721327077806
H         -11.92272888904790   -5.19141994188451    3.15475929674411
H         -12.90912141687092   -7.20333811982516    3.85322376688307
H         -13.73637481622874   -8.92581467621509    5.42596457650217
H         -13.96066508032523   -9.44113003122426    7.93364938834288
H         -13.89123478748460   -9.40602292649817   10.31977161622354
H         -13.54792538198000   -8.79065572421829   12.79639176524022
H         -12.59320516248840   -7.05738897431924   14.23873094094968
H          -9.73627077988913   -2.28124630129585   13.14182272453974
H         -11.44847836060966   -4.56464779884284   18.37109721551418
H         -10.15261839530179   -2.55175671494938   18.08006056781276
H          -8.42513170367093    0.08418198001956   16.22719749389319
H          -8.28233910989113   -1.28129785087027   17.36242722058621
H          -9.80101686899918   -0.34427582754168   17.27483966702957
