89
 SCF done       -181.759645454610          0.000660979337
C         -13.30596449520053    0.61105884267063    3.98247467569602
C         -13.72603174295385    1.86411931695450    4.36480476223608
C         -14.92028713307518    2.11980241121877    5.06872608829580
N         -15.87789853031216    2.40042262403875    5.63715557380813
C         -13.06685236189457    3.07252941811831    4.07916126327146
N         -12.60270773009942    4.10452916426624    3.87090288744893
C         -14.03436368253894   -0.62752192624764    4.23818734371793
C         -13.35973764322622   -1.69213820714322    3.59401645359803
C         -13.81072910889707   -2.98754565811550    3.63272407403382
C         -14.97778783095558   -3.25094389378798    4.35910447338950
C         -15.64031757745768   -2.18294893683253    5.00811361390833
C         -15.18960762773289   -0.86946124899387    4.95815437081141
S         -17.06108829906747   -2.72831100487573    5.84798698085523
C         -16.74901563249633   -4.36086725323800    5.32216598482900
C         -15.63922048738484   -4.49348727353869    4.55747109226127
Br        -17.91827825751537   -5.73645240301179    5.83090142512777
C         -12.17060997064248   -1.16310520267770    2.88975018428345
O         -11.49428774815559   -1.76568590310361    2.08658871735447
C         -12.09824361385293    0.27236965499869    3.26161917638232
C         -11.10242983677835    1.15488879275415    2.92912082520573
C          -9.81224048453509    0.83286256604465    2.44749975694153
C          -8.99990395348964    1.76721563204069    1.81667249864785
O          -7.77462539034822    1.44435607218581    1.31787266286080
C          -7.36202832284832    0.15573245013224    1.51110695095852
C          -8.18542419572770   -0.79257871669787    2.18005816309099
C          -7.60999281876321   -2.01696778217908    2.26296785300284
S          -6.04858063642180   -2.01882830782763    1.52776711634189
C          -6.17542016600548   -0.35675727763237    1.10088283299310
O          -9.40292197513826   -0.45252602329378    2.67624565065169
C          -9.36296995180653    3.12797742886937    1.57356743683945
C          -8.61705504458212    3.94527393394652    0.79212694312133
C          -8.99888637937758    5.29032498386170    0.49513099556508
C         -10.06267482080002    6.02259354274195    1.07284344433404
C         -11.15283448896371    6.22442704296313    2.09874200717492
C         -11.43550143457223    7.59354229794251    1.40628204608443
C         -10.31697929670080    7.22001899833638    0.47808604732439
S          -9.30338190034620    7.55234576556599   -0.86221359704977
C          -8.46419474544537    6.04196302710336   -0.55938832471336
C          -7.39842646284295    5.69363023116866   -1.46760576137493
C          -6.11808700564638    5.37982364248371   -1.08439327628172
O          -5.13990909921446    5.03232102369484   -1.99562151892429
C          -5.51089026456682    5.10498950875539   -3.30565931040575
C          -6.82054971965953    5.50459498451845   -3.69857061819947
C          -6.98747599880558    5.52715902759267   -5.04438366964743
S          -5.54323058309945    5.05956556546196   -5.85582300421608
C          -4.70877455602842    4.83196683909657   -4.36360067607584
O          -7.78439026514477    5.80326067217788   -2.77769945769385
C          -5.65960498901852    5.51826580016328    0.25525580965168
C          -4.33933790412261    5.49926747380113    0.58588395393480
C          -3.82257543303335    5.84802706591867    1.85520851275643
C          -4.43052572204347    5.81973152126746    3.07791698916916
C          -5.58964690710938    5.11771237108769    3.57126739313115
C          -6.03315294382932    3.89037836917126    3.14376546379210
C          -7.04527049137875    3.16365909216242    3.79249316558243
N          -7.87163971649441    2.53209295692815    4.28177152985885
C          -5.42689647157346    3.17986218159067    2.08996537671990
N          -4.92997987785060    2.55080907669679    1.26835214940658
C          -6.01559576953584    5.78308359088838    4.79757752849816
C          -5.00675967154764    6.70022234190499    5.18587694994408
C          -3.92777659478710    6.68979109817127    4.17427415141504
O          -2.88043207282082    7.29415558721334    4.20116355967099
C          -5.10292475750868    7.45731516007463    6.32742632844584
C          -6.25445862811826    7.31394993582241    7.11018901820491
C          -7.26533303369814    6.41203973055696    6.70003624028037
C          -7.16308973061023    5.63588196824315    5.55125454069429
S          -8.60731253643905    6.41046182907259    7.80329754324945
C          -7.80070571424661    7.59896074024200    8.79221902071437
C          -6.59000533020137    7.98050123880446    8.32040388987380
Br         -8.63355651303596    8.22516397053163   10.35146738828339
H         -13.27903268040915   -3.77523884869616    3.12244212325311
H         -15.73349237106848   -0.09154049420439    5.46702789717747
H         -15.30013946460748   -5.42789765023645    4.14891968990777
H         -11.28882094364908    2.20283392329033    3.09420103328956
H          -8.01115201311925   -2.90421232391711    2.70480250578311
H          -5.38051784435970    0.15309561021792    0.59762411613862
H         -10.26154136817171    3.50773715844525    2.02940274792749
H          -7.73494419039940    3.55785562086689    0.30232340345119
H         -10.80506983064464    6.29717203388643    3.12617016706967
H         -11.97472264653872    5.51512766536762    2.05149568800574
H         -11.24953904445370    8.47100691539362    2.02216573409566
H         -12.41397588341496    7.67868012532388    0.93838793623504
H          -7.86734697264414    5.78796481216312   -5.59423630766749
H          -3.68861455171025    4.51062003393714   -4.35176261700832
H          -6.40736175087078    5.76861071672707    0.99262647289172
H          -3.62126482600655    5.33802250696194   -0.20556784489033
H          -2.83251707378083    6.29436962441753    1.85695880535771
H          -4.31689399003100    8.13968760866288    6.61001281404892
H          -7.95830973569221    4.96417870315768    5.27137846803975
H          -5.95825273882541    8.70270471543361    8.80429750636736
