109
 SCF done       -198.916073135711          0.000779637222
C          -9.06468568863661   -0.89704173618826    3.21360052677137
C          -8.86253790872590   -2.00313284301877    2.42472647646574
C          -9.29359938957872   -3.30177039784520    2.75991428052094
N          -9.62646036444663   -4.37886159560836    2.97949531151503
C          -8.16558330734980   -1.99349583636230    1.19944383500985
N          -7.58440396435864   -2.06377698749709    0.21087813056391
C          -9.67656778317801   -0.89311072119385    4.53774151486230
C          -9.58365290189768    0.41490786513433    5.07224455532044
C         -10.07271885444582    0.74256797375313    6.31246999495981
C         -10.67926175736543   -0.27070082397532    7.06374005671218
C         -10.76895614087171   -1.57335999912013    6.52003348644638
C         -10.27597547878252   -1.90444091989404    5.26330612658338
S         -11.56221333682305   -2.66890704015767    7.61127663528244
C         -11.75721235668220   -1.37970593233349    8.76855227079132
C         -11.25595068396965   -0.18970799296989    8.36091948782513
Br        -12.60444204677799   -1.72604341546662   10.40611585148999
C          -8.92135363164630    1.30334138541876    4.09208055866217
O          -8.75461711756608    2.50121326412178    4.20668449119241
C          -8.62578405742853    0.44756667897478    2.92468015055019
C          -8.24222562533909    0.91128030529336    1.68717867424361
C          -7.64909889979861    2.14500903487812    1.39442847752626
S          -7.92881665367602    2.83545992237285   -0.17993545923095
C          -7.03825122948266    4.26959518871999    0.18792460446405
C          -6.47204523210160    4.18633104602867    1.47360030534019
C          -6.79599223022676    2.97431041363348    2.14558211353372
C          -6.18268308570694    2.68667779426747    3.37687948896597
C          -5.36166030865836    3.60193779273743    3.97411814201943
C          -4.69894357126672    3.33292181095621    5.28421012293014
C          -5.11196137386517    4.85606565507649    3.33616341136180
O          -4.30112890647231    5.69014044298458    4.03530114010380
C          -3.98610056579789    6.94638352369625    3.48821391432115
C          -5.63859636379132    5.13229778387472    2.09862172468262
C          -6.94209352106826    5.34402587355575   -0.73216630292154
C          -7.42050046260286    5.29313403503209   -1.99707340796215
C          -7.37090039924570    6.32214960109094   -2.99487561641254
C          -7.34279070416478    7.65646771097802   -2.83647748201903
C          -7.45148327254057    8.38063291035896   -1.53385038482983
C          -7.32331179699297    8.54662788476939   -4.05800045829324
N          -8.64398724486910    9.07404942336395   -4.31188472329300
C          -9.02420436871473   10.34240115326595   -4.09213279734970
C         -10.32238488668160   10.76051890173631   -4.10753802861008
C         -10.71111296474049   12.10031269877525   -3.97414939813894
C         -12.01673492348581   12.52724710631447   -3.98101493689310
C         -12.49481480095443   13.85380570329729   -3.89601851746489
C         -13.85386165610690   13.96410271525016   -3.94019713825486
C         -14.52377142649605   12.72686836507260   -4.05025305283888
S         -13.37854841688327   11.41672705954718   -4.10989145116707
C         -15.89059948527637   12.49494915469306   -4.09878201520782
C         -16.93637060047021   13.43484945014847   -4.08997223955100
C         -18.18168195383733   12.87102279707155   -4.13864111062328
C         -18.17547907715941   11.46257287531223   -4.17499464567285
S         -16.53624465702739   10.86830050588812   -4.17581412961018
C         -19.28285745931630   10.62783363260051   -4.20284911863580
C         -19.19485047071396    9.24761629792137   -4.15380978629926
C         -20.22296837809556    8.31977988088452   -4.15645792889922
C         -19.96995037153543    6.97387364970497   -3.61168115313163
O         -18.89496066083069    6.48366667830290   -3.32896000230354
C         -21.30724449375105    6.36424990174440   -3.43120502432535
C         -21.63907478463798    5.17030426818265   -2.86315365490248
C         -23.00420653646788    4.81834795990286   -2.75112599093677
C         -23.99742548834198    5.71651279910934   -3.23548732690802
C         -25.35603660897614    5.36590247844635   -3.11101479029085
C         -25.71197455964607    4.17931333058579   -2.53326622874696
C         -24.72934036530913    3.29216395057652   -2.05576630119530
C         -23.40256797443545    3.60311892412167   -2.16263553486014
F         -25.10633032439131    2.13348440329494   -1.49029273867557
F         -27.00808080201088    3.84919377173660   -2.41463028666375
C         -23.61988415322423    6.94338715169899   -3.83200682662202
C         -22.29335487858372    7.26116881831694   -3.93009597871907
C         -21.61032035069340    8.42918567296581   -4.49388657286436
C         -22.19472980716327    9.33718087106809   -5.35103715382920
C         -21.48320926716987   10.27959878765431   -6.11629267631912
N         -20.95516930078758   11.03412117150094   -6.80395663577042
C         -23.56812844267114    9.35865495520321   -5.65345242109986
N         -24.68415126623259    9.44075444357025   -5.91697368808453
H          -9.98971647088325    1.74849371320388    6.69317472298730
H         -10.37406957521547   -2.90949914604239    4.88829913548785
H         -11.29216051309425    0.70936797099015    8.94856940698621
H          -8.47983676866959    0.29654520732501    0.82631408654252
H          -6.34285631922373    1.72721974290224    3.84110598776378
H          -4.94935272214533    2.34090046631285    5.64859390822257
H          -5.01516637973816    4.07389361396607    6.01662321581240
H          -3.61814384813355    3.41998668611182    5.18294959662587
H          -3.35192901667462    7.43767605288798    4.22431761161589
H          -4.88483051535365    7.54970862035326    3.32469388973670
H          -3.43591702693276    6.84783881130346    2.54657676169563
H          -5.41343948499176    6.05352197110123    1.58705594242847
H          -6.41249501118864    6.21778875919803   -0.38567358994613
H          -7.85348368480089    4.35663422145633   -2.32892260535057
H          -7.38795799788278    5.94508444617254   -4.01144095804313
H          -7.97206413025746    7.77905476771115   -0.79280167244086
H          -7.99455960304454    9.31540713531122   -1.67042502754101
H          -6.46158698401452    8.62744505295576   -1.14768502811135
H          -6.99364812315759    7.98038982987750   -4.93535365930709
H          -6.64101080782686    9.38666279382923   -3.90708337497798
H          -9.37654286669424    8.38619147941745   -4.42099426964888
H          -8.22163013783367   11.05255641550714   -3.93986371367342
H         -11.10575219551627   10.02672471112777   -4.24381317987989
H          -9.94091547340154   12.85330301582802   -3.86816769667522
H         -11.82098762000515   14.68828590964696   -3.81005154074918
H         -14.38756582981478   14.89589347223042   -3.89109961255565
H         -16.75446966153340   14.49393609285789   -4.05071426110094
H         -19.10189383920041   13.42723194740731   -4.14883519738689
H         -20.24792373363919   11.11228110751806   -4.22034564840383
H         -18.20982732468523    8.82011055451168   -3.98685831725867
H         -20.87266333582884    4.50324425412991   -2.49861823293007
H         -26.12180482588721    6.03346500289186   -3.47418024843790
H         -22.66122321101978    2.91284081497516   -1.79142491136516
H         -24.39458078112776    7.60460314021331   -4.18581626439398
