112
 SCF done       -206.778053887924          0.000849902576
C          -6.99033966066172   -2.39971799284559   -3.83678205080131
C          -7.13925895102791   -3.60468097763630   -3.20034728593679
C          -6.83611677728193   -4.85290455305454   -3.78136479542425
N          -6.60771797094764   -5.89602489303485   -4.20274160378064
C          -7.60908969194510   -3.74699952481738   -1.87876644848405
N          -7.98630517758112   -3.90490734846742   -0.80619769336356
C          -6.49497232158173   -2.20604527559936   -5.19729400447828
C          -6.46228451011427   -0.81640694910869   -5.48457654997900
C          -6.04063773542258   -0.31936001679132   -6.69428924033625
C          -5.63573606941818   -1.23595944706120   -7.67042797425717
C          -5.67368022078980   -2.61995961306750   -7.37612754036912
C          -6.09652784519498   -3.12246478095007   -6.15079250734638
S          -5.13799579184720   -3.57511157989431   -8.72345896886576
C          -4.87415684700986   -2.12379134283330   -9.65307614585966
C          -5.17037108526490   -0.98079190829555   -8.98907114393293
Br         -4.23701901646052   -2.25479967301039  -11.41180523775585
C          -6.94579849906921   -0.07865336758780   -4.31099668592993
O          -7.05229744367773    1.13598743790300   -4.18073274773737
C          -7.28247038442666   -1.08924923687836   -3.30314770566348
C          -7.80635887811531   -0.74388934120139   -2.08226453255695
N          -8.02360528252361    0.53825771238909   -1.76832482921269
C          -8.58979771486284    0.99995124810682   -0.62181732149942
S          -9.21453346267137   -0.10173972807419    0.57105250299818
C          -9.78234815473361    1.24984960125656    1.49328719456470
N         -10.44307596643713    0.99178371710324    2.70305651415350
O         -10.84512971861522    1.94706148477902    3.33947007066789
O         -10.56494689303718   -0.17655600801728    3.02313108182947
C          -9.51119188985070    2.45928062941451    0.91371625977144
C          -8.80622006643941    2.34325693216704   -0.30097980321769
C          -8.41155921927154    3.50690351623498   -1.05910921616458
C          -7.36705710550344    3.61413935637202   -1.89783213211525
C          -6.98967233845076    4.80781052395613   -2.62306404653362
C          -5.72477642031712    4.84506467557739   -3.23043428812003
C          -5.31665227229931    5.97881936852936   -3.88847792939557
C          -6.16470193806879    7.09698260144255   -3.97418640617458
C          -7.43101773546383    7.06067310723237   -3.40673393319574
C          -7.83052932579619    5.92268584739644   -2.73742339893144
C          -5.47325182870614    8.14753666268234   -4.68549435231970
C          -4.19454238804142    7.68091817864744   -5.04278480797358
C          -4.00104122696760    6.25545577240915   -4.57800018301371
C          -2.81843111606409    6.14267748081634   -3.59775736091936
C          -2.95669305780238    7.06753471393071   -2.39438153059607
C          -3.77756087405826    5.30051295192559   -5.76556551905043
C          -4.92098010926703    5.33048799982562   -6.77260131991583
C          -3.30626205155810    8.49609713558072   -5.69698397011048
C          -3.67417893846732    9.81829753856540   -6.00430540609068
C          -4.96221976239121   10.25980279834162   -5.65488307464361
C          -5.86122619114448    9.44194243745973   -5.00529303324509
C          -2.78153245862271   10.75968429632251   -6.62333570983440
C          -1.51289635437010   10.51269853046049   -7.02732562172101
C          -0.61696374187168   11.47813337304468   -7.56842766359373
C           0.68799326805127   11.07656739493678   -7.95064999082961
C           1.67428758185971   12.00138481653709   -8.44460591300663
N           2.88713178658931   11.56318530020916   -8.79313564869900
C           3.17221036767299   10.28351168166446   -8.68038544443771
C           2.19741353827636    9.36481620669883   -8.18124614826811
N           1.00174499329477    9.77395730128502   -7.83431162227942
C           2.51184143121823    7.98866761488668   -8.05360119805523
N           2.78714349211128    6.88032392130174   -7.95908941582128
C           4.45745249467971    9.82872778959459   -9.05739390710579
N           5.49102604708210    9.43032155932709   -9.35304019281180
C           1.40913089056955   13.40215604571207   -8.56631211528825
C           0.09065806519747   13.78993676505531   -8.21976701579032
C          -0.90075059604154   12.85406816896563   -7.73833819830416
N          -2.05991287550991   13.46346914105140   -7.48595292034673
S          -1.93062627647161   15.03172147975028   -7.81569478900922
N          -0.39393353011887   15.02297943232098   -8.29446957032863
C           2.44581367114596   14.24274759139023   -8.99185814308389
C           2.53374955185738   15.61171306595156   -9.13209119580602
C           3.73518047560604   16.24768424980125   -9.54386894035116
C           3.67712050134517   17.60608549339103   -9.58532409865796
C           2.41536443468195   18.11817710409484   -9.20944621861634
S           1.30696740239642   16.81492655230488   -8.82111356744208
C           2.02950578513282   19.44046993513820   -9.12764721931262
C           2.81744905696222   20.59166752755414   -9.40388895699308
C           2.17012162879100   21.76565253740775   -9.22551769250978
C           0.81023576574135   21.62870332027594   -8.79061494605023
S           0.42106667433714   19.90735616425542   -8.63152423778499
C          -0.07144211217261   22.60472951205499   -8.53066085847642
H          -6.02612065853616    0.74258299048397   -6.88374008579213
H          -6.10729439379616   -4.18513202229452   -5.97550839226350
H          -5.06669558033305    0.00192777806966   -9.41138061990578
H          -8.06032086801396   -1.48421485359553   -1.33454275209871
H          -7.78611886517808    1.21287299452884   -2.51518189669155
H          -9.79741272215564    3.39321415626358    1.36304145755944
H          -9.01610291574196    4.37858601255860   -0.85110497252757
H          -6.68502337405071    2.78405421775673   -2.02447428235785
H          -5.07861959474480    3.98161002384003   -3.16199522415884
H          -8.09297033849593    7.91023208095603   -3.48339316538878
H          -8.81764823218166    5.89228985128806   -2.30277855846923
H          -1.89682795658658    6.38005409280939   -4.13279250668944
H          -2.74662849179270    5.10871046859907   -3.25377784206348
H          -3.00477488507681    8.10691514023459   -2.71158396457791
H          -2.10181055720812    6.94952530872230   -1.73265415183577
H          -3.86041338621025    6.83799807714857   -1.83373216092251
H          -3.66124336863035    4.28528611785214   -5.38002343556997
H          -2.84677483766213    5.57744282227119   -6.26475165647321
H          -5.85233460673893    5.01527212322782   -6.30691655476878
H          -4.70528236540665    4.66025309572950   -7.60167223677826
H          -5.05734189430454    6.33405273929066   -7.16966596956613
H          -2.32504917339244    8.13263057485319   -5.95965410698623
H          -5.24253410828623   11.27437173261540   -5.89930312353269
H          -6.84313253693421    9.80486913234262   -4.74027603289949
H          -3.16834341221741   11.76121494312394   -6.75038729131701
H          -1.08726823913582    9.52316704594480   -6.94312856254190
H           3.35759665923931   13.70580347959074   -9.22909833178409
H           4.60991130437855   15.67112262353350   -9.78915545459999
H           4.49902014689660   18.23847261531195   -9.86948571356921
H           3.84018836937241   20.50579316699322   -9.72505611902536
H           2.60140950707863   22.73805207366295   -9.38343276919355
H           0.20469973460153   23.63846445452710   -8.64134464769639
H          -1.07415139131451   22.38963319728145   -8.20970861374090
