123
 SCF done       -198.536830394781          0.000955102344
C          -2.47167638882526   -1.42686720907617   -1.39872412035524
C          -1.83698215321396   -1.34224427583796   -2.61004137156066
C          -1.30303400695026   -2.45047205293488   -3.30029871146240
N          -0.85652371175203   -3.31548048113568   -3.90865180608669
C          -1.59635739971878   -0.14679756387312   -3.32048420229134
N          -1.34537724572772    0.77816325439974   -3.95282296825829
C          -2.64266903232812   -2.64103251315777   -0.61331822793484
C          -3.20242954239492   -2.29355362338154    0.63945528655004
C          -3.48625939686777   -3.22523864557480    1.60827459595550
C          -3.20385914430857   -4.56574063189489    1.32688570222002
C          -2.64785396773422   -4.90459270062868    0.06995615212985
C          -2.36061914318428   -3.96240086087683   -0.90920586253118
S          -2.38585916497497   -6.61673395430564   -0.07221669507864
C          -3.01671883522804   -6.85032753073947    1.53646828460014
C          -3.40413873730620   -5.70728496768353    2.15050784670741
Br         -3.10668479049674   -8.58156396660577    2.25233423397192
C          -3.42209885319235   -0.83307324319011    0.70165237647235
O          -3.89566399541554   -0.22807300039136    1.63764185564207
C          -3.01856475929014   -0.31687085713506   -0.63275993343543
C          -3.31930931994157    0.90508442236824   -1.15103297391988
C          -3.80928913991123    2.07468605874487   -0.47932686732904
C          -4.65259905115165    2.93787456266673   -1.20551397282847
C          -5.16950463081642    4.04940476740586   -0.59498372187875
C          -4.82058881542949    4.36315536589780    0.73315837666527
C          -3.94035855582491    3.55177250994184    1.43663573624886
C          -3.44882452432301    2.41264233175047    0.83324106282752
C          -5.51510897860979    5.57269849589712    1.11493768653232
C          -6.30219633333079    5.99784261556877    0.03053685545502
C          -6.12760918605656    5.07523276573308   -1.15205595905200
C          -5.51593933895274    5.81871462749634   -2.35495871644442
C          -4.18615163891349    6.48610024034666   -2.02530345684068
C          -7.46178292153296    4.42861732859857   -1.56753528547061
C          -8.13283368283733    3.67285632902806   -0.42677872725004
C          -7.10184922599414    7.10812455822639    0.14268511567937
C          -7.12770137690806    7.83251379136062    1.34319246710811
C          -6.32290132715073    7.40765346461320    2.40736116560938
C          -5.52253931189424    6.28768573807275    2.30488612416328
C          -8.02097414187643    8.96963493203598    1.44039356290470
C          -8.01007264016815    9.92689158752326    2.37694310240858
C          -9.01089537160227   10.98728683125514    2.43918100636275
C          -8.73846746653101   12.33003256828928    2.73932612002929
N          -7.53551418292420   12.98385206754666    2.95226270645986
C          -6.25743189910527   12.52308877046102    2.45528731258813
C          -6.26914400893491   12.36272204552444    0.93550203232188
C          -7.80915657860632   14.30929660761552    3.23345779288572
C          -9.20561189713402   14.52276047219179    3.17955384699786
C          -9.79974021195259   13.25559659246376    2.87154742165896
C         -11.12164675685388   12.87757941965747    2.68384148710957
C         -11.38440727710673   11.56441510520835    2.35296036664622
C         -10.34847633147367   10.64861349930252    2.23535831918301
C          -9.75224628671447   15.78313402443016    3.37357457310229
C          -8.89486213409639   16.83796196161963    3.61228363579627
C          -7.52557667340789   16.62789847186555    3.69706611524494
C          -6.94557988953919   15.36889374021917    3.54439179910187
C          -5.51448269932548   15.23106335607855    3.79576203009195
C          -4.59983543842835   16.08153287211954    3.30374022024860
C          -3.19870308204690   16.06004999789214    3.60320415035797
S          -2.12319985118404   17.06070607137216    2.68310256720152
C          -0.75830657114316   16.52124725509574    3.61407907398365
C           0.55983335261990   16.93112726291902    3.22465877939455
O           0.81803872988637   17.74785086332050    2.36814148877792
C          -1.14093256021250   15.62479685701842    4.60930596985866
C          -2.52157425851181   15.36009952256273    4.57641162195565
C          -0.25311826605171   15.06777901409121    5.60621570501786
C           0.84444080809998   15.74595869388731    6.21171179042723
C           1.43335410723452   14.89982964292393    7.14572622124023
C           2.53024889058762   15.08376123190355    8.00674029782587
C           2.87067057262975   14.04113984761615    8.83266406648498
C           3.90473195550557   13.89491257776733    9.80677409503899
C           3.81429039345928   12.63273176992938   10.37292547198190
C           2.71793641787564   11.95682018545514    9.76357522395614
C           2.13072704014496   12.79917080756770    8.82174708880539
C           1.03480180148047   12.61620325461517    7.96464355688105
C           0.69307457776938   13.65969089931646    7.13500889840933
C          -0.35141740708162   13.80830553912880    6.17470478172040
C           4.69089186006155   12.12037254023082   11.39962160434219
C           4.61307888976490   10.91451347733868   11.95482305856667
H          -3.91346113671096   -2.92846737079183    2.55334826546191
H          -1.94316101880643   -4.27050294355385   -1.85319300767462
H          -3.81559604893486   -5.66867150479488    3.14257796537795
H          -3.23731137626587    1.01414206884722   -2.22712197977297
H          -4.91013132454258    2.69175571986092   -2.22588188160440
H          -3.64645760381099    3.80253386243265    2.44445834709961
H          -2.75217753645939    1.78781017439981    1.36640282278270
H          -6.22641383473161    6.57518489040424   -2.69493628939559
H          -5.37101251690472    5.10617107676269   -3.16950276799429
H          -4.30870130679917    7.21563634170664   -1.22759090956712
H          -3.79799110485766    6.99760886356371   -2.90286783973201
H          -3.45341549464001    5.74817264638263   -1.70630102175615
H          -7.27522726002062    3.74338867207638   -2.39710133963025
H          -8.13229827802836    5.21174392044089   -1.92755792273664
H          -7.49162250617168    2.87234560879535   -0.06421809709871
H          -9.06888648378958    3.23617197359374   -0.76723283298487
H          -8.34706448750742    4.34196387015258    0.40371390483962
H          -7.71771685412555    7.43191144315778   -0.68460742467224
H          -6.34764059621532    7.95202372094575    3.33916456376142
H          -4.92082796381122    5.96745560753970    3.14246263699795
H          -8.75196152361999    9.04151651383744    0.64364040336285
H          -7.25990107268396    9.92199846423945    3.15459884108504
H          -5.98331355800615   11.58009675277491    2.93242800500255
H          -5.50826311137873   13.26961989817315    2.71994217915229
H          -6.98707308287077   11.60699121590662    0.62846754304488
H          -5.28260415147763   12.06446047495993    0.59075285092117
H          -6.53290999342099   13.30739712285396    0.46479922610180
H         -11.91736082896793   13.59764443710361    2.79557361499945
H         -12.40114575233068   11.23610848916584    2.19793774479725
H         -10.58367551866495    9.61762252888484    2.01586488513489
H         -10.82057797642484   15.92862058674854    3.33256941581520
H          -9.28638534691375   17.83355712017377    3.75614437795632
H          -6.87905560678482   17.45917052487498    3.93614310174492
H          -5.21289596979336   14.43949717963164    4.47036640663018
H          -4.91238881745436   16.84193719093951    2.60060421578366
H           1.36607211423914   16.39706751832808    3.76729097633525
H          -3.00542149942728   14.70694312172652    5.28023407347236
H           1.12951881326105   16.76324897345176    6.01330477535781
H           3.07968507155375   16.01474370073741    8.00664278111055
H           4.63037017081517   14.64831843327575   10.05476780252850
H           2.39672794427895   10.95726009731135    9.99338513743622
H           0.48129311128574   11.68728759911533    7.96656571773945
H          -1.07127261468367   13.05204506923640    5.92052666393592
H           5.46564991007357   12.80667339498180   11.71877184244461
H           3.86221335063032   10.19744972468386   11.67028670965047
H           5.30594278514176   10.59951783861917   12.71557920841574
