96
 SCF done       -196.116629302720          0.000977207857
C         -17.02115603988739   -6.96736467317119   -8.25317014651484
C         -16.16840514316413   -7.74381768546681   -7.50025005333046
C         -15.73386944087325   -9.03095241881736   -7.87303524437966
N         -15.34113167890564  -10.08475882844903   -8.10943585694030
C         -15.60439833926815   -7.39130423510605   -6.25877832179032
N         -15.09750387748746   -7.19794891163440   -5.24502789274312
C         -17.60270829803288   -7.36133026393385   -9.53519595044465
C         -18.44225000691474   -6.31646042349015   -9.99258916448013
C         -19.13001484181777   -6.38372812251795  -11.17849268604967
C         -18.98161665530721   -7.53884899341984  -11.95489809791396
C         -18.14174121234140   -8.57704264584910  -11.49021806251172
C         -17.44683728236117   -8.50894059309285  -10.28794517141716
S         -18.09768689442603   -9.91065067534269  -12.60363307601782
C         -19.19316845731957   -9.06530578494917  -13.66442116014417
C         -19.57409200139923   -7.84811151833107  -13.20995132282377
Br        -19.72940252006450   -9.86959707713799  -15.27214541992890
C         -18.42163450870731   -5.21134283567256   -9.01089053161902
O         -19.03563911418393   -4.16523549686054   -9.09064288958324
C         -17.50452942759881   -5.64899056306358   -7.94017948353746
C         -17.15404444993466   -4.88339025302409   -6.84424877680656
C         -17.62005859870556   -3.60312376607824   -6.57420475772394
C         -17.17716473431690   -2.86748429975881   -5.48625613173598
C         -17.54606820598376   -1.55451113927334   -5.13248008166092
C         -16.89963833047465   -1.07269517907091   -4.02496246885024
C         -15.99832583804277   -1.99004309988466   -3.45904980135671
S         -15.99677783044977   -3.48660996261593   -4.35341816781010
C         -15.14985821894690   -1.82374614390904   -2.36595214252510
C         -14.93721187973797   -0.68364430150088   -1.57361603863768
C         -13.97418351248478   -0.85748872794753   -0.61460213762837
C         -13.39600782623880   -2.14116913233418   -0.60830218210458
S         -14.12239259016968   -3.13370225857850   -1.84825813105367
C         -12.37141432397545   -2.58414144470050    0.21307399103190
C         -11.80910632828630   -3.84954562905746    0.21126678396457
S         -12.34345975525175   -5.20642543678669   -0.76803892843585
C         -11.10731551375583   -6.31872020165137   -0.16991881994112
C         -10.30527402325327   -5.63236122402622    0.77764687428004
C         -10.71975566743067   -4.29706497395329    0.97358639503287
O          -9.97974050618254   -3.68375641319012    1.90521868929536
C          -9.08976795655219   -4.61866658424617    2.32920262509769
N          -8.17493999285146   -4.25771381429300    3.34424217409876
O          -7.41212661377947   -5.12855156614457    3.71778040714088
O          -8.21797959032423   -3.12239148597410    3.76811254354953
C          -9.23832950553280   -5.82375501650512    1.68423094005961
C         -11.14992425665725   -7.60807061073792   -0.65615497119922
C         -10.23682901564371   -8.65196895291503   -0.54337348341854
C         -10.47833099482717   -9.96261819939426   -0.99204311539533
C          -9.41353926124725  -10.81292509624944   -0.84490764114532
C          -8.27522903348190  -10.19541896307672   -0.30491404395507
S          -8.60489801112677   -8.52232555481345    0.05872933515131
C          -7.01321270767088  -10.75445258998357   -0.10693714169095
C          -6.64108940293909  -12.10063258554206   -0.27033202586247
C          -5.31091639685953  -12.33053313254889   -0.05019037136698
C          -4.57687725101437  -11.17255000309538    0.27679068355053
S          -5.63527961608038   -9.78387173934685    0.33811073338592
C          -3.20562594920927  -11.09429061988738    0.44354095472488
C          -2.51554545439203   -9.91291993781255    0.68881802860617
C          -1.14913474802364   -9.73083457750823    0.69371769879624
C          -0.07405639781726  -10.55637945101712    0.21771801975866
C          -0.13312324955829  -11.50155442451551   -0.78195763745822
C           0.97622803732282  -12.24930200642474   -1.22190013199413
N           1.83772834662469  -12.90608430285407   -1.60379962449767
C          -1.27024873938691  -11.75712013288568   -1.57299131237725
N          -2.14551105083256  -11.98288717031882   -2.28224068876362
C           1.16174905482101  -10.05183944817446    0.81644291103409
C           0.87974707205939   -8.82684359095295    1.47180563452176
C          -0.56763677414342   -8.54465265107802    1.36593721705524
O          -1.16492373520400   -7.57132168368013    1.76863128263892
C           1.85085171765946   -8.08194677598412    2.09355035838317
C           3.16098866029833   -8.57444793938031    2.07868869415773
C           3.42865636023097   -9.80566312708684    1.43606850277266
C           2.44676679460987  -10.55599506149510    0.79853813414349
S           5.10904989274238  -10.23256577890639    1.54599499626285
C           5.42641362684424   -8.76768348987651    2.43718471989526
C           4.33156486603659   -7.99878572298572    2.64486810549833
Br          7.17295668272247   -8.39400177003395    3.00981734934251
H         -19.76164171210626   -5.57055051569920  -11.50011259296201
H         -16.81816468777376   -9.32734565541861   -9.98006689481298
H         -20.24410570944395   -7.19359357709276  -13.73679810511790
H         -16.44443472859535   -5.30013366588182   -6.13962884619360
H         -18.33891789396926   -3.14971432469851   -7.24108568932554
H         -18.26808209162344   -1.00035394719914   -5.70513465282831
H         -17.05186183790192   -0.09061516183327   -3.61482732890429
H         -15.47684304116769    0.23285679916492   -1.72873722419946
H         -13.66486672214096   -0.09623420004691    0.07925347165632
H         -11.94925412405125   -1.87547559782292    0.91356522463989
H          -8.64706459432169   -6.69482769838468    1.87069598741556
H         -12.02581629166638   -7.84136812646943   -1.25065589670787
H         -11.42761105755213  -10.24893793029626   -1.40828664932571
H          -9.42306174688876  -11.84661375635628   -1.13789245651464
H          -7.34971882586545  -12.86350113981965   -0.53675760872893
H          -4.83546023596764  -13.29062734311485   -0.13835552970220
H          -2.66149156740466  -12.02473729034584    0.36617146184013
H          -3.09517954537656   -9.03762211417330    0.96733159454409
H           1.60977247227026   -7.14773730168094    2.57583816926872
H           2.69892517497788  -11.49023528266444    0.32497204700652
H           4.34612723366357   -7.06407127833120    3.17499802386425
