97
 SCF done       -184.916280956308          0.000431146133
C         -15.08812046792296    3.08516905021775   -3.88889773203999
C         -15.67166775267059    2.43289226179691   -2.83171578639056
C         -17.04501354891900    2.13064241891152   -2.74750638655341
N         -18.15399562631375    1.85933351804304   -2.62507794978821
C         -14.96822013212130    1.98788732331370   -1.69510235685143
N         -14.43480429279469    1.61065323643359   -0.75062950075266
C         -15.78229305142846    3.56852581254879   -5.08181802962575
C         -14.83975158896265    4.19543442395164   -5.93826702831836
C         -15.18277342390260    4.75251936004052   -7.14657867298155
C         -16.52709713662796    4.69065155931121   -7.52907662180256
C         -17.46206709665717    4.06667486768903   -6.67024922456067
C         -17.11157847337799    3.50086657534621   -5.44813074092913
S         -19.06451892182279    4.10524682988940   -7.33791420426679
C         -18.46427730100642    4.94760021654631   -8.74283611276412
C         -17.13206317881493    5.18819492778278   -8.71529086677644
Br        -19.65499189526664    5.42866692447228  -10.10942676876664
C         -13.52131227687413    4.12766874651524   -5.30722014295312
O         -12.46211421513494    4.57080364611185   -5.75346935113609
C         -13.69436266902660    3.42969789686267   -4.03800824431081
C         -12.63095036188130    3.18486694950419   -3.19450945294024
N         -11.40241146296612    3.60115180867655   -3.52398242497919
C         -10.25859370799897    3.44215912374107   -2.81619492709656
S         -10.30461956911665    2.63566578966023   -1.27065430771548
C          -8.59884043641555    2.89250171785523   -1.10574236259826
N          -7.96511069004131    2.42670954018147    0.05455950065363
O          -6.77073752698699    2.63556150426747    0.16592978150462
O          -8.65982413960049    1.84781653802016    0.86985920996855
C          -8.04183041494414    3.54717346922098   -2.16632116047534
C          -8.97018744121992    3.87900009658361   -3.18206647233880
C          -8.51253662390621    4.55694937706900   -4.35282115242221
C          -9.18622253649018    4.93023967766482   -5.47565090328293
C          -8.60024047037064    5.58729003358781   -6.57060496037624
S          -6.90937814181852    5.99756233052616   -6.64486483511316
C          -7.04109306611488    6.68168634008016   -8.24206556064761
C          -8.38263659418884    6.60358924576345   -8.69638892078275
C          -9.25541097628874    5.99262083152577   -7.75303326890578
C         -10.62233164801009    5.85600493345902   -8.05150607039784
C         -11.08385996712973    6.31701614602412   -9.25284777676620
F         -12.39328990958457    6.19862981017555   -9.54844115462010
C         -10.22086648765707    6.91780916348892  -10.18809783474553
F         -10.71933994744583    7.35773446954317  -11.35785532614850
C          -8.88550139047468    7.06348737300485   -9.92106867001021
C          -5.94901349493135    7.19857694403487   -8.92637996171812
C          -4.66501915393385    7.29530711147583   -8.42333883233456
C          -3.59742059961576    7.77632964691613   -9.16036692961521
C          -2.29973273394664    7.92176842918140   -8.68897731353215
C          -1.18649843476897    8.35860083332244   -9.42642174988084
C          -0.02256685815521    8.41512041584642   -8.70531230071975
C          -0.17082756765759    8.03614399285028   -7.36261835358581
S          -1.82952099469461    7.58482684211576   -7.03808663446044
C           0.80810815129837    8.02081337168026   -6.37348163510851
C           2.17196188847686    8.33649462855906   -6.51767893159892
C           2.88082398382921    8.25382587397319   -5.35340283654558
C           2.11610924246307    7.87685901554328   -4.22704166359248
S           0.45098608250242    7.60835797863379   -4.71813559292373
C           2.60053197025753    7.76797910735112   -2.94340059110975
C           1.91511669325718    7.44285490391926   -1.76199970454590
C           0.56649591938835    7.09543107093910   -1.56384492213607
C           0.35358107114707    6.88876962907793   -0.18727288627346
C          -0.78327657844165    6.54235883067029    0.52420786378757
C          -0.67285513505025    6.43402568073569    1.91180255429989
C          -1.60938898044523    6.12309052934343    2.89682029814119
C          -0.97907730413193    6.16499153833260    4.17189400699294
C           0.35705038505342    6.49549213144879    3.98202702529340
C           0.59202348500999    6.67261349950300    2.58818951917671
C           1.72485501925676    7.00415144215468    1.88994184218118
C           1.61946202925277    7.11774345357726    0.48933893782739
C           2.55286834255227    7.44384548979669   -0.47624121490488
C          -1.66834057407059    5.90414043455587    5.41381570173071
C          -1.12673080760685    5.97921557004298    6.62654398712580
H         -14.44567135324843    5.22042558386946   -7.78048864696988
H         -17.86236139054277    3.03610544783002   -4.83122700479293
H         -16.59387455279836    5.69450619330946   -9.49570444793659
H         -12.74612948819244    2.65670765928307   -2.25741941253686
H         -11.36702445048113    4.10432264031230   -4.42271258441140
H          -6.99265072605262    3.77798926086871   -2.21299474926981
H          -7.45540284396905    4.79233996029756   -4.32451080581068
H         -10.23509129964473    4.72975081312917   -5.60844634947160
H         -11.31356157194880    5.40797298435842   -7.35762749073951
H          -8.24852731441255    7.53162932440784  -10.65318539655289
H          -6.12657858760224    7.55067648383541   -9.93351334369245
H          -4.48319512378896    6.97829181145222   -7.40361783860744
H          -3.76812083984210    8.06151906792318  -10.19082477909160
H          -1.26620227387790    8.61786790350837  -10.46737218741143
H           0.92212554658504    8.72745016648652   -9.11229600941633
H           2.59796261016618    8.61399212047328   -7.46468929323782
H           3.93348688094753    8.46054648739086   -5.27067474786589
H           3.65660416827045    7.98490526947387   -2.83050195567211
H          -0.18474831362628    6.99830156671880   -2.32392793157681
H          -1.72585267723115    6.36598249157613    0.02630881608583
H          -2.64551529674301    5.88807137733734    2.73044135943228
H           1.10406710330090    6.60380310795082    4.74584642307019
H           2.66951599503421    7.17981869562548    2.38539811965342
H           3.59040459730004    7.67287855121742   -0.31008000990938
H          -2.71126311613988    5.63238923533353    5.30988484393615
H          -0.09550687533784    6.24909905202199    6.77786844924470
H          -1.70059729231100    5.77344248341323    7.51324206312961
