121
 SCF done       -231.065600410393          0.000397024136
C          -8.61004521344952   15.76828506930318    1.55875182401692
C          -9.01271993857925   16.58136896943173    0.53275159990414
C          -9.20405210203899   17.97344289561880    0.65677698750351
N          -9.37790530792141   19.10710111762748    0.70190693491118
C          -9.26028318136396   16.14865917621955   -0.78724033159668
N          -9.47073772466923   15.86897165591647   -1.88099963783560
C          -8.29018604924492   16.19497326191946    2.91379448736041
C          -7.77402312257211   15.08780277171812    3.63144899081918
C          -7.39072774813377   15.17354528865162    4.94786973776390
C          -7.52828184473797   16.40906809667128    5.58886872938612
C          -8.04823863850266   17.50890690720058    4.86462459722279
C          -8.43134860317801   17.42392889960736    3.53244365349786
S          -8.14518081518358   18.93582841434548    5.85145993764652
C          -7.49504783744552   18.04860004478431    7.20439273324391
C          -7.21764439559524   16.75101290039461    6.93335651360483
Br         -7.24870387817892   18.91798710074323    8.84771657034046
C          -7.74349082473926   13.89859509799157    2.75478742303550
O          -7.32450542068989   12.80018779908900    3.04427595643267
C          -8.37205371884768   14.33574314163995    1.48117206587130
C          -8.85721114629801   13.50272469846616    0.52491621130597
C          -8.58937573652741   12.09339462163213    0.41716593420786
C          -7.31182224558101   11.61078394467325    0.50285118117729
S          -7.15605236190235    9.95198319216901    0.13131627251355
C          -8.87861384182275    9.82958097434302   -0.08122739808267
C          -9.53989059524562   11.05254322588698    0.09532143272322
C         -10.95120948266685   11.09821452554985    0.01488175334155
C         -11.63759281870501   12.41414795340583    0.27560400503913
C         -11.92693164612962   13.19506659878209   -1.00855674113607
C         -11.67539548602170    9.94392021077829   -0.26719164533761
C         -13.15740890350888   10.01150276754342   -0.52713511732573
C         -13.46305984052621    9.72421708602447   -1.99982004567720
C         -11.00107274814494    8.70325335965645   -0.39681017581080
C         -11.51457214566019    7.36741652942740   -0.61832831779744
C         -10.51272785540037    6.45685996678461   -0.78850504482622
S          -8.92852259695963    7.09746919657058   -0.62171334482037
C          -9.59799621072360    8.67659250238353   -0.34454957897211
C         -12.89340327549442    6.95100408051050   -0.52633092146568
C         -13.46118233334648    5.98423605518344   -1.26893258755785
C         -14.80862027330332    5.50655757438705   -1.19942403645995
S         -15.17851496763134    4.34190792640026   -2.44107719154725
C         -15.91204179439595    5.72075354919756   -0.36927890229461
C         -16.00255537062798    6.66649825368877    0.75862328512290
O         -15.17633407000614    7.52488185089587    1.03831871413350
C         -17.22091019764225    6.52791949138977    1.53540931657458
C         -17.57989410456467    7.16835733057539    2.70207810741298
N         -18.81375721639388    6.74455063433487    3.06411250216395
C         -19.55796835298300    7.22817981981141    4.19957552171127
C         -20.40278600335702    8.44368962967656    3.82340160013567
C         -19.27590023830006    5.86065085963993    2.14878659431573
C         -18.31052021632213    5.68983700329035    1.18022033944632
C         -18.31643117739112    4.86504410098007   -0.01075833114222
O         -19.27989406089789    4.19191532395999   -0.34507560310552
C         -17.03553653356395    4.91516712731195   -0.74667380330857
C         -16.80613054723779    4.13531192974505   -1.87419654103028
C         -17.73315706702105    3.30055117924026   -2.54428920442269
C         -17.46942302000943    2.57639711371746   -3.65731984701002
C         -18.45845507112007    1.81434893172115   -4.33258240553922
O         -18.07909561405296    1.09707454855195   -5.44117771492954
C         -19.19713292296058    0.51781731281212   -5.90416202071903
C         -19.67187030023534   -0.31649818677542   -6.92658791669286
C         -18.92335906689893   -0.96661496277362   -8.02478154709808
O         -19.42381046364817   -1.74265239628041   -8.80941270797996
N         -17.61476074622258   -0.62734634195953   -8.05146569788480
C         -21.05284758404696   -0.40330303063092   -6.68966901746915
O         -21.41566718446966    0.30217745419587   -5.57117664358894
C         -20.29361757121881    0.85789872615953   -5.09953652404466
C         -19.82172011522161    1.68646791276811   -4.08151450035054
C         -22.02149590429818   -1.11766976776975   -7.43056914752067
C         -23.37331285364156   -0.96892462069374   -7.37347514007046
C         -24.19782693829271    0.07358538259766   -6.79619409120885
C         -23.87605521763227    1.40193333559733   -6.70119918487719
C         -24.75049466742167    2.38744105817939   -6.20135700380348
N         -25.42164241026227    3.22067157747319   -5.78494996111789
C         -22.66994805374256    1.95206027424749   -7.18381683842562
N         -21.73043372783073    2.45468551583641   -7.61081394847520
C         -25.53014262529459   -0.48671303030825   -6.59907293686694
C         -25.59482888452477   -1.74211032094909   -7.25493371038495
C         -24.27407563927627   -2.05953930808233   -7.84115378893732
O         -23.97521467128265   -3.02023766272684   -8.50835591727368
C         -26.74247146046053   -2.49660910741817   -7.28711462767696
C         -27.87323178006165   -1.99451495120148   -6.63390249801365
C         -27.79280058571873   -0.74663300873688   -5.97050097686950
C         -26.63543772681045    0.02161560723293   -5.94417260166883
S         -29.30178615663099   -0.32235684889133   -5.22120782626507
C         -30.01233231508689   -1.80434032705542   -5.80440835279938
C         -29.16497776356487   -2.57898331625191   -6.52197992335780
Br        -31.80465996943043   -2.18817076398624   -5.40821205234428
H          -7.00062331101629   14.31272817101835    5.46792915409315
H          -8.82812221074557   18.28729954698143    3.02491106511647
H          -6.81279625513247   16.06142031210435    7.65132975473425
H          -9.48035475968066   13.92405294236297   -0.25149139079155
H          -6.42783127526165   12.18474002140676    0.69974978526506
H         -11.00020296164761   13.00959179195873    0.93346889556119
H         -12.56940425596323   12.25071040115746    0.81925326781783
H         -11.02892738100005   13.31341802572135   -1.61089058614430
H         -12.31438535190564   14.18366925310864   -0.77093292759381
H         -12.66374313063530   12.67684018820166   -1.61575499066174
H         -13.54368299777313   10.99995740319552   -0.29504919946898
H         -13.69738645594033    9.30890910370928    0.10336455678301
H         -12.96002570786467   10.44667069329135   -2.63971105068418
H         -14.53422401398144    9.79201132005824   -2.17432321750994
H         -13.13362459929884    8.72966790571440   -2.28590645092986
H         -10.62889643456193    5.40079973084778   -0.93663707091255
H         -13.48567508683299    7.43399457518519    0.23179913870084
H         -12.87959776976860    5.51456838930851   -2.05511580761898
H         -17.02481860557815    7.87446943600723    3.28708659898361
H         -18.85135035329210    7.49356231503056    4.99008498615788
H         -20.20204805012228    6.42283574098352    4.56190124308277
H         -19.76740699225710    9.25041949500229    3.46600161872681
H         -20.95730491601710    8.79303977277317    4.68953048353106
H         -21.10833997184696    8.18557738600642    3.03745710186444
H         -20.24022592914833    5.40088650755444    2.23477962334598
H         -18.72219259138271    3.28365899967128   -2.11106175049709
H         -16.47831201831796    2.56797125491334   -4.09180702187855
H         -17.22370553882657    0.04252388447325   -7.41313306612265
H         -17.03491195353154   -1.00945419984624   -8.77950048040798
H         -20.36843744384721    2.14586881211661   -3.28596364359422
H         -21.62722839011204   -1.90198987523788   -8.06775507438957
H         -26.76834650490172   -3.44466894203407   -7.80090951626890
H         -26.61701319293089    0.96423589648039   -5.42243865094341
H         -29.43689474988887   -3.52409674090655   -6.95528531860944
