113
 SCF done       -200.259576168552          0.000547399180
C         -15.89915792139553   -0.09893828874020    3.22958415540592
C         -16.17749073918628    0.23845421225617    4.53078318486006
C         -15.30461198079128    0.00432434483713    5.60707708453246
N         -14.62723874866833   -0.14538347896144    6.52384457888986
C         -17.39532809173993    0.80692742960209    4.95920666155513
N         -18.37001958314316    1.23942138354427    5.38606018970499
C         -14.71614522522290   -0.79506452963492    2.75293568498543
C         -14.92720765108672   -1.17084059336048    1.40250597315668
C         -13.97440296688007   -1.83969525532613    0.67328696250928
C         -12.74650382804328   -2.11334420128564    1.29088154045064
C         -12.53482627244120   -1.68748582484396    2.62384709959118
C         -13.51062967513257   -1.04518744706798    3.37476489835876
S         -10.92922999026810   -2.04154466363280    3.16733586312496
C         -10.57077283852570   -2.77251389288665    1.63443414558802
C         -11.59473826268367   -2.74671991376002    0.74794671427160
Br         -8.85615784832762   -3.46294132259139    1.35150915584028
C         -16.22901748453245   -0.63303799428133    0.94311297545962
O         -16.68031784595572   -0.70457380568811   -0.18213873180047
C         -16.76359549771760    0.12335058034430    2.09219952244295
C         -17.67198219731064    1.14663548926164    2.04987075749386
C         -18.54563767490766    1.58813063564794    1.03968577455973
O         -18.69798091386843    2.94258808062016    1.03853545078168
C         -19.53587721611253    3.29004831889602    0.04763103373245
C         -20.02278884891103    2.12759195642312   -0.55254268156105
C         -19.39000975722033    1.04290000770345    0.05942609877693
C         -19.63609232144058   -0.39178884820796   -0.21234518270189
C         -19.64227890044327    4.66438065228803   -0.24743223894953
C         -18.77185199674873    5.57241773970733    0.30979688282805
C         -18.64396927761802    6.95812776653292    0.02732211576598
C         -17.56306891473479    7.55322366133893    0.60556214928705
C         -16.78352693562933    6.67276180093549    1.39115556418279
S         -17.51044216888854    5.08118033388843    1.41992012123135
C         -15.56423082377526    6.86411690207091    2.00574090651470
C         -14.71925623340746    8.00092856460018    2.00931328519469
C         -13.50800203073499    7.78369024334525    2.58254518057054
C         -13.31415541126910    6.46138161781522    3.08401397163798
S         -14.79319462394683    5.53325941468865    2.84310406534807
C         -12.14357619839543    5.94670561508086    3.55028059870708
C         -11.89860080438701    4.61215682922772    4.02828459063333
C         -10.61829849641206    4.05705365597578    3.84415125559924
C         -10.36855305429966    2.76867401735506    4.24626616614252
C         -11.35316667558089    2.04326326157289    4.94620964008699
C         -12.61127865497298    2.59088855222649    5.16274717182047
C         -12.88341797120548    3.85280273052367    4.67765074008178
C         -10.79040186319019    0.77887563969912    5.35884203299438
C          -9.46865252778420    0.70221231233633    4.88349513758805
C          -9.12007840868748    1.93295977281882    4.07409387057465
C          -8.96193117925267    1.46318358818430    2.60698901015289
C          -8.77549763809097    2.56573548357590    1.57369029119320
C          -7.85740088045560    2.63566802608588    4.58975001609489
C          -7.95594682856774    2.98330309237455    6.07085178102019
C          -8.70407432637540   -0.40976265259993    5.12724357545976
C          -9.25448796004882   -1.49248963369312    5.83740443252154
C         -10.56293127666203   -1.38277350867140    6.33737503959020
C         -11.32756038988427   -0.25774864397579    6.11535890071355
C          -8.46530844201942   -2.68155411081836    5.98727160112844
C          -8.92831893385902   -3.91737457216941    6.30184112423825
C          -8.06602479545226   -5.02928286578765    6.42480775799488
C          -8.40649792550211   -6.33329477858072    6.64067973234571
C          -9.67808746434002   -7.01702446133744    6.59774297476564
C         -10.75366221262440   -6.70579241241969    5.80437310505863
C         -11.95002265070858   -7.45141723639909    5.77544147612789
N         -12.95174002111693   -8.01020881804415    5.72514047636915
C         -10.76125285275860   -5.69093927607145    4.82801552158199
N         -10.82687622525809   -4.93162856338009    3.96899428366697
C          -9.53664696643116   -8.24613404200215    7.37370844797470
C          -8.16588505453110   -8.43024946906128    7.68507871471536
C          -7.39264507517672   -7.27841300132132    7.17419925414095
O          -6.19520556808217   -7.11063297738418    7.22363081164383
C          -7.70807009035181   -9.52434051480432    8.37728891607834
C          -8.64733470462792  -10.47527371971614    8.79137451460190
C         -10.01476763273828  -10.27437606036648    8.48800188492931
C         -10.47800345828723   -9.17199664060263    7.77995923855025
S         -11.00283039557378  -11.56348525835753    9.10509178584184
C          -9.58439111039012  -12.34682258732014    9.74942381089905
C          -8.42997503774366  -11.67852065593554    9.51743554872418
Br         -9.76287396259566  -13.97122409314931   10.66986437086219
H         -14.15893089944996   -2.12640042429419   -0.35033071002702
H         -13.30316873431651   -0.74235283634090    4.38665297072237
H         -11.54164255823099   -3.15305465370410   -0.24553011236512
H         -17.62367577974442    1.86000938971723    2.86797056852773
H         -20.73711214274382    2.08241681822615   -1.34980892413920
H         -18.73001783888461   -0.85361252747814   -0.60300649886414
H         -20.44209643738455   -0.50863906623870   -0.93110895313693
H         -19.89558823127140   -0.91007261231599    0.70962694251340
H         -20.36318569112604    4.98613019700815   -0.98112342414696
H         -19.34127563902593    7.46139723254574   -0.61926367504389
H         -17.29950719899373    8.58771103703128    0.47259622424241
H         -15.02403570485183    8.93109713910138    1.56356614504927
H         -12.72808273942092    8.52144725573550    2.65467042475159
H         -11.27869986605666    6.59713636405327    3.49294922681481
H          -9.85463002678599    4.65202105396313    3.36497604911014
H         -13.36053755314556    2.04206020022846    5.71220727801034
H         -13.85435964016687    4.28901781953183    4.85450671494047
H          -9.85249863240166    0.88467448101672    2.34489439550161
H          -8.10605933525458    0.78606813822341    2.56517044601994
H          -9.65170595693321    3.20699440630334    1.52742598525737
H          -8.63356861971672    2.11725661363366    0.59273551088936
H          -7.90182709070335    3.17321087081577    1.79434116018596
H          -7.69843920052231    3.55148497813659    4.01913357787116
H          -6.99737399187957    1.98366052412790    4.42400856071293
H          -8.80439982764698    3.63913399623365    6.25422534034601
H          -7.05128530792582    3.48995155520264    6.39887135112555
H          -8.08395715946214    2.08467334335487    6.67011950285808
H          -7.69172257997131   -0.48165450132664    4.75651669087374
H         -10.97650453321271   -2.19046226828205    6.92077457612257
H         -12.32529464402747   -0.18524004983467    6.52248746960956
H          -7.41135770816123   -2.58086843723344    5.75561091618910
H          -9.98265249161723   -4.06789726907074    6.48016346110705
H          -6.99986623489742   -4.82677063057057    6.44218509043871
H          -6.65825297445564   -9.64433826644865    8.59416687182775
H         -11.53003923942470   -9.05803953921973    7.57697432740099
H          -7.46401337772526  -12.01765343144042    9.84434399917652
