120
 SCF done       -211.799269180541          0.003139408995
C         -11.70624654443307   14.74068098023029    5.47376883481078
C         -11.44349471686783   14.58250901076189    6.80871233234653
C         -11.82311170190724   15.51957132563877    7.79323037601905
N         -12.15344481024865   16.22382480226130    8.63652152640475
C         -10.83548285881890   13.45474011219309    7.39353508175357
N         -10.34845741049167   12.57307500417511    7.94733838351933
C         -12.34132420098820   15.91040737102864    4.88237754062361
C         -12.70485369645430   15.60600697464749    3.54987742435066
C         -13.30651760222450   16.51650575792330    2.71650776484206
C         -13.54136570860461   17.79971709895963    3.21860662145422
C         -13.16418000936132   18.09998126350217    4.54951773736510
C         -12.57025838358431   17.17376266551661    5.39671147240345
S         -13.51644800298097   19.75396537383517    4.95336223894264
C         -14.15871213499588   20.01335803474453    3.35314904953750
C         -14.11325125528325   18.92001168841198    2.55565830697327
Br        -14.82446832115286   21.70322322534804    2.88277295753563
C         -12.30646960871081   14.21948239151991    3.23603442766704
O         -12.63057642023322   13.59328626100509    2.25206109844115
C         -11.51711876265288   13.75866878485260    4.41292621968005
C         -10.79498682628035   12.61406157524482    4.50823438674723
C         -10.51912159975029   11.67959244807914    3.44479545700761
C         -10.26374495723050   12.13569909028108    2.14055814312628
C          -9.95925379719768   11.28621016541899    1.10454892180950
C          -9.86502084247208    9.91370181905760    1.32164756752655
C         -10.06791624660196    9.44280793259390    2.59570429056237
C         -10.40733626426672   10.29877670061062    3.65736232618355
N         -10.64570784340964    9.54523908451866    4.79131314286852
C         -11.12469101090194    9.99712944652771    6.06906746322065
C         -10.40590867130219    8.20971591880182    4.57011234668308
O         -10.57703363691373    7.33139287935148    5.37793905348218
C          -9.89595664067527    8.06097350508420    3.14250501294386
C          -8.38600069799122    7.70609325102342    3.17344393994037
C          -7.65370942519542    8.90487236292310    3.78443726058145
O          -7.74491478823585    9.31358996336685    4.91865704296317
N          -6.90198968605556    9.47980847954111    2.80079113461769
C          -6.23236188953754   10.74513093819214    2.94122491317127
C          -6.98525538314005    8.76262228474452    1.61610349734003
C          -6.39022672733054    9.03527939213209    0.40308234519903
C          -6.67433777930385    8.19446554392191   -0.67818641116510
C          -7.52096770196705    7.09848770794757   -0.50198098875884
C          -8.08852411698371    6.81407336435313    0.73123579909406
C          -7.82411098928137    7.65455860469442    1.79024398135956
C          -6.11905124613295    8.46928190428897   -1.99367558793377
C          -4.89437758105477    8.96506955434280   -2.21175855309517
C          -4.35657302720069    9.22074750004367   -3.52461246254532
S          -2.76726899720329    8.61646016940546   -3.88424758492146
C          -2.92405415887731    9.08570236136621   -5.53234089913680
C          -4.10959165988685    9.68319016033980   -5.80299068577354
C          -4.48206938230869   10.20018486353220   -7.15300551632911
C          -4.94669048235370    9.79312526843988   -4.64017435155994
C          -6.16296552926835   10.55734636049126   -4.66604768152698
C          -6.71210983635183   11.20953514977811   -3.61219647956495
C          -7.81543333421470   12.08735793275958   -3.71571746735335
C          -8.25826042003505   12.84422936302244   -2.66838825539514
C          -9.25834482159056   13.82391477698328   -2.75170721081956
C          -9.61725437419303   14.64109622755743   -1.70635045802906
C         -10.52516492018666   15.72669749680984   -1.72389575229315
C         -10.62420648507432   16.39774256995551   -0.54141217098277
C          -9.82523012983019   15.86109705907709    0.49100768799327
S          -8.91736790408382   14.48789718617716   -0.10032228443801
C          -9.70964224284165   16.26755048307147    1.80540451095307
C         -10.18060253969608   17.45276657392985    2.41050038775725
C          -9.85888544888642   17.55066530908548    3.72785961492779
C          -9.15069381029105   16.43191611182766    4.25544742823143
S          -8.84240606595479   15.28199380289873    2.97071776202086
C          -8.85547279771198   16.28822920418945    5.58235843441560
C          -8.25355322973787   15.22780005823744    6.32433655231491
C          -7.53640623029394   14.13758979986879    5.84018824212276
O          -7.29393496733915   13.99976881188850    4.48834794083167
C          -6.01163096058415   14.43623505116108    4.08392612076721
C          -7.01908179367960   13.11819986842795    6.69817159835778
O          -6.33128261639079   12.14749581680122    6.04750312185545
C          -5.86327736952616   11.04475315486173    6.79245090498773
C          -7.20172610713215   13.16087913394173    8.06138038816538
C          -7.88253323453472   14.26123031053972    8.59836237976121
C          -8.40183327804890   15.29078112522421    7.74378543672112
N          -9.01531430393619   16.24933599675821    8.42950794220213
S          -8.94562336371917   15.89074335927717   10.00027388158327
N          -8.13045985134163   14.50653233232165    9.88419892690278
H         -13.57355083578126   16.24905796850226    1.70600695482436
H         -12.29111905751095   17.45000182884511    6.39998444134865
H         -14.46935505517544   18.90169966258144    1.54154308723391
H         -10.32878511424836   12.39000334701312    5.45641725282672
H         -10.27203187941132   13.19584753745573    1.96128505656196
H          -9.77916632824093   11.68668259782659    0.11933255240028
H          -9.63234477502655    9.24172474126393    0.51030663713163
H         -11.95142599563259   10.69705375936903    5.93712726764617
H         -10.33373674092543   10.46900062852925    6.65452882954242
H         -11.47111202315753    9.11519153389153    6.60905971168657
H         -10.44062015782693    7.28329485325061    2.60416633446951
H          -8.24326578786106    6.79876499587384    3.76415366477251
H          -6.48249880148157   11.15564004840392    3.91812824255589
H          -6.57958450786413   11.43459717281211    2.16966685296523
H          -5.15020828210030   10.62283414330591    2.85999547799698
H          -5.75577549885494    9.89676288737909    0.26906145880350
H          -7.72781413228867    6.45704182132851   -1.34538780257753
H          -8.73811463187914    5.96020613137929    0.85113425315063
H          -6.75173769077995    8.23376314007745   -2.83939744627429
H          -4.20735132735233    9.09279654533654   -1.38424108063174
H          -2.11558816405652    8.88921080681521   -6.20881729890551
H          -3.68260658713525   10.00494841300428   -7.86269326070049
H          -4.65984885886676   11.27409857152142   -7.11496771543975
H          -5.38989829062105    9.71563294595424   -7.51080969782821
H          -6.60404838965426   10.70132580992936   -5.64391201410491
H          -6.25721476382551   11.11505938420066   -2.63574372272070
H          -8.28936342642360   12.19553693770886   -4.68329635082863
H          -7.77647752283947   12.72174312953136   -1.70490313398608
H          -9.75093807470386   13.98273179736524   -3.70227169462975
H         -11.06964684247552   15.98464264729846   -2.61570860471308
H         -11.26058261751349   17.24923346272438   -0.37629382581674
H         -10.71109088280625   18.20847562249845    1.85816910193518
H         -10.10798752403215   18.38869946409083    4.35518016148673
H          -9.19831765253970   17.09580121824308    6.21994537648644
H          -5.92827435255420   14.19272866018606    3.02684415895509
H          -5.22377752876697   13.93174760748189    4.64613226947727
H          -5.91107982223244   15.51975930939727    4.21453308227003
H          -5.16024193846296   11.35873825048985    7.57026813095428
H          -5.35376974178855   10.40231383207974    6.07698950320980
H          -6.69291015016837   10.49018034322777    7.23615024148352
H          -6.84294406646761   12.39357364789989    8.72370766583945
