100
 SCF done       -186.143852604690          0.000482966015
C          -9.53856151346774    7.40038855574862   -1.87109539975916
C          -9.60150493946074    8.23918071799710   -2.95417150656165
C          -9.36068730720290    9.62462800720398   -2.90352543563576
N          -9.18915029155913   10.76045522089511   -2.93484337614128
C          -9.93752586283240    7.84004769294075   -4.26017375542694
N         -10.23486360621105    7.59511293729352   -5.34249416169895
C          -9.20879692891182    7.80242226858850   -0.50698690471488
C          -9.23148282577394    6.65844385699838    0.33220450816505
C          -8.92679856301315    6.71419993870175    1.67052281637307
C          -8.58308587903344    7.95807268311807    2.21028989409111
C          -8.58526706297318    9.09637087619044    1.37069758582761
C          -8.88696688051969    9.03995099541590    0.01585739487830
S          -8.15660222709315   10.53433598801325    2.24310249199349
C          -7.95459550207791    9.59630286708320    3.69860739275850
C          -8.21156550303565    8.27621767330300    3.54497264710134
Br         -7.43564492489708   10.44990693042502    5.28217655343465
C          -9.60839277221637    5.48593482345151   -0.47427557707532
O          -9.76908114598168    4.33641764349472   -0.08608927527464
C          -9.79218104343788    5.97833662932913   -1.84394014664583
C         -10.17733187273130    5.14992425502382   -2.86614104569576
N         -10.38491593296850    3.84337830001860   -2.64723072694324
C         -10.87532968267680    2.91673769697689   -3.52548411382690
S         -11.77694027443820    1.58807213166087   -2.85730670499397
C         -12.16438949127200    1.05796545451883   -4.46022415249215
N         -12.93911437149223   -0.09973315567657   -4.60231167783766
O         -13.21491525607980   -0.46161537732401   -5.73066678660655
O         -13.28113672929858   -0.66118025749648   -3.57573909435262
C         -11.62675142873976    1.85331957667911   -5.43822955314722
C         -10.85464396032835    2.91020819137905   -4.92311144058487
C         -10.06646217478978    3.79548019327579   -5.75629805824157
C          -8.81926256626084    4.16484031549596   -5.41150679321971
C          -8.00405927965163    5.11696886268321   -6.07817061091536
S          -8.62588278003933    6.11369927091813   -7.36072842672217
C          -7.25715475554377    7.19138991682317   -7.22299196569708
C          -6.29845564739503    6.67077004413092   -6.36449886129950
C          -6.73002199387732    5.51283853324513   -5.69670658562814
C          -5.95069933085699    4.89246226566958   -4.57156018077397
C          -6.00232726191327    3.39164379088890   -4.55301843964594
C          -6.19269877849018    2.68298731933187   -3.45513660123753
C          -4.47852312771540    5.33385976427799   -4.60853262444425
C          -4.36040816642191    6.83320864385587   -4.84724537396045
C          -4.88804271294027    7.15614230084018   -6.24105350394786
C          -7.36301796278197    8.50616762731758   -7.75305273966286
C          -7.10500335529178    9.60374702101248   -6.97496900326844
C          -7.18813396284764   10.98062619433578   -7.30293639999572
C          -6.94806240391365   11.82250546538496   -6.25596626714356
C          -6.66056211907792   11.15778546097397   -5.04516206324374
S          -6.73386892272237    9.43341338122978   -5.26233453844213
C          -6.33217926158159   11.65983435555341   -3.79485122214019
C          -6.23643077071463   12.97567753699499   -3.31863533912206
C          -5.89565810897462   13.05259518069974   -1.99569105658284
C          -5.71075090035220   11.80593926882340   -1.35294556120700
S          -5.96925681541011   10.53087770257713   -2.51257907534381
C          -5.35094758725674   11.69520395874930   -0.01717914705282
C          -5.15382479701478   10.64678947518903    0.87626902937653
S          -4.58192787010878   11.14394820892293    2.45017641826689
C          -4.55903950221342    9.53297963654729    3.09936396511479
C          -5.02719297865363    8.62336040161703    2.15226599979087
C          -5.34540407074859    9.23179686786796    0.88300031291629
C          -5.82653765317880    8.42092976446319   -0.12342845386061
C          -6.03296210326262    7.05522714767459    0.06151231127651
N          -6.52559148605352    6.34172737375262   -1.03033027887538
O          -6.81804387645183    6.95225790710450   -2.06018143360786
O          -6.68538190032826    5.11620175786539   -0.95767830972290
C          -5.78597856860070    6.45107202292538    1.33927541014262
N          -6.08992032465912    5.15536986591551    1.58160508241027
C          -5.28418986729095    7.25657919229483    2.34432801772621
C          -4.09394920888620    9.36631910528257    4.44471779778379
C          -3.58655957899843    8.25990787223127    4.99076763924608
H          -8.94719500537828    5.82547534280306    2.28092413094070
H          -8.86100002930542    9.93409791952401   -0.58366200447344
H          -8.14034281526468    7.55577889972329    4.33885233837867
H         -10.34411766708491    5.52184903406736   -3.86661580813762
H         -10.26015564535395    3.56667713574247   -1.66048692332330
H         -11.75999706525163    1.65664439811732   -6.48670252837227
H         -10.50047751884994    4.11184677512428   -6.69413143824130
H          -8.38387669599520    3.75800282947179   -4.50896645159470
H          -6.39159763207573    5.27388418449838   -3.64266622327459
H          -5.82212695696193    2.90706815712808   -5.50457905164459
H          -6.37078574955705    3.15927130884646   -2.50388681833540
H          -6.18176087664298    1.60594779882448   -3.46028631226293
H          -3.95734444121866    4.79553579758673   -5.40478518482269
H          -4.01216469583717    5.05899160049173   -3.66084925015326
H          -4.94752094694391    7.37149430931816   -4.10052664887112
H          -3.31896709823019    7.14780215656109   -4.76113777382135
H          -4.28574479686906    6.61945554492782   -6.98381121529183
H          -4.80141992872538    8.21778554251621   -6.46527258148093
H          -7.81447997212984    8.64712261014609   -8.72525599086511
H          -7.42237184067876   11.30388620991700   -8.30191229390368
H          -6.97417953286508   12.89561903713605   -6.32182710580615
H          -6.42510023402760   13.82750386843555   -3.94684293414327
H          -5.78023150152232   13.97828036273912   -1.45946169592840
H          -5.17630377712713   12.66545451907977    0.43894929810831
H          -6.06751233068444    8.81566493149418   -1.09198770442079
H          -6.37295441380924    4.57108019493683    0.80839255157700
H          -5.82116242871774    4.74398610475808    2.45635660458691
H          -5.12544862214764    6.82183379157024    3.31717468184377
H          -4.13738552553221   10.26861508100463    5.04300661006686
H          -3.44128564194280    7.34954397745434    4.43772532385560
H          -3.26737030058338    8.25325647918285    6.01786888117979
