114
 SCF done       -216.880636449885          0.000995969736
C          -4.08299920464407   -2.30409293296239    0.54715686472056
C          -2.98776477100142   -2.46732638878376    1.35415873297813
C          -2.35606978968724   -3.70656429438254    1.58690656515629
N          -1.80158279847624   -4.68733095873347    1.80712162510486
C          -2.36748784464781   -1.43429037200871    2.08930122422124
N          -1.82507571040968   -0.65916249876276    2.73981862225227
C          -4.81168341400701   -3.36862147481568   -0.13132250550689
C          -5.95075457240382   -2.81035623902502   -0.76139571345910
C          -6.84713189166237   -3.56683751382810   -1.47639199933793
C          -6.61372511691034   -4.94273599906152   -1.56760011118872
C          -5.47140638066490   -5.49179193364547   -0.93740184245340
C          -4.56129414414295   -4.72564899947004   -0.21975656594311
S          -5.37208476833914   -7.20950610937302   -1.17968071143081
C          -6.84632423809988   -7.16725299961214   -2.10981373891239
C          -7.38726749977360   -5.93212619823151   -2.23399751614895
Br         -7.53620590935599   -8.75815194466105   -2.82385870874499
C          -5.97566354650392   -1.35178996713971   -0.53852770186933
O          -6.74701175319186   -0.56517236890680   -1.04480407487995
C          -4.78488855883211   -1.05880997075609    0.30171145259686
C          -4.35092556662830    0.19396068180451    0.61122910954477
C          -5.15802749285375    1.36817286132808    0.54478872455584
C          -4.60283843117243    2.60837900321205    0.16952012825209
C          -5.42191530799581    3.78130913812625   -0.00813648443892
N          -4.83995166167778    4.94460052826595   -0.33771815360677
C          -3.54990474562259    4.98375330704389   -0.56274443936863
C          -2.75073995628720    3.79735381699246   -0.46055130582200
N          -3.28339358027633    2.66150770486772   -0.08892105002330
C          -1.36473887874588    3.85816012414050   -0.75395403925586
N          -0.25405880663252    3.95610964824973   -1.01633407851824
C          -2.96397579509305    6.22482435365645   -0.91496645076678
N          -2.48357456468938    7.21729988006285   -1.22624254446853
C          -6.82629430542146    3.75812973884799    0.18504875647717
C          -7.34682036343046    2.55789528956805    0.70746024222128
C          -6.52494082575103    1.38071153093259    0.88323523015907
N          -7.21250693403426    0.36830676706405    1.41017833591475
S          -8.73581778631224    0.82000295847875    1.60558999837218
N          -8.61237367366379    2.32273667257672    1.07078748473459
C          -7.65282781961050    4.89608529184248   -0.14952047423442
C          -7.29558007233199    5.73994606361282   -1.21553907503863
C          -8.05912466403350    6.84307991775373   -1.48984802501431
C          -9.21066429944204    7.12789541426671   -0.73314324781762
C          -9.59114118134276    6.28172376056922    0.30388246660120
C          -8.81782046803100    5.17727062011654    0.58385392818274
C          -9.79400460951183    8.34666047681540   -1.23243742449798
C          -8.99525029448519    8.83052966746117   -2.28964069961106
C          -7.86754635365145    7.86863552343502   -2.58503603322464
C          -6.48485709959569    8.53439167766880   -2.51359979302408
C          -6.17632491800138    9.09237212792664   -1.12917090089730
C          -8.08220137137040    7.13837321139688   -3.93273376031691
C          -8.08798371688390    8.02190288158692   -5.17293580279766
C          -9.29632285939867   10.02929625597629   -2.88362181553577
C         -10.44673505805663   10.74094655270846   -2.49290485239090
C         -11.24375177160448   10.22806589390587   -1.45469153601263
C         -10.91811196086579    9.05267381770014   -0.81647039088128
C         -10.76040789563794   11.95183704727131   -3.19751764118759
C         -11.92940512843603   12.63253369506963   -3.11969766648527
C         -12.25833672315324   13.79424697062681   -3.87228373170149
C         -13.55636354235061   14.34808422086000   -3.75652358384774
C         -13.99497964723879   15.48777695327489   -4.52835936088636
N         -15.23815200011591   15.93774691017351   -4.39027396634336
C         -16.06928125424033   15.35690536709168   -3.54560408361145
C         -15.62636680377615   14.24431397128465   -2.76933590351824
N         -14.41007535358660   13.77260306504172   -2.89201704047656
C         -16.50834331681210   13.62878939183109   -1.84463220935884
N         -17.23923181543554   13.14781433171426   -1.10520882099730
C         -17.39057313195718   15.83841242290215   -3.41880328037953
N         -18.47408099159413   16.19010790999231   -3.28270091475848
C         -13.13363647783472   16.14970094658873   -5.44720364744740
C         -11.81746673047102   15.60810855974931   -5.53022718451487
C         -11.38906204524774   14.45917027164600   -4.77318262563291
N         -10.12128221020277   14.14604626563958   -5.04091854079763
S          -9.53186512231218   15.18299155548375   -6.12239903706537
N         -10.85290434881935   16.08148054187648   -6.31212633741793
C         -13.45128639106855   17.24238700817974   -6.25989631413295
C         -14.61586634272114   17.96367744379837   -6.44752625945721
C         -14.68572471041770   19.03820059792764   -7.37116597136952
C         -15.90629908949468   19.63633494552948   -7.46064137591236
C         -16.86330500367988   19.05714478933327   -6.60275614400789
S         -16.16265643233233   17.73843331416744   -5.67715508817358
C         -18.19089094293084   19.40679823018851   -6.44209492013926
C         -18.89934230336047   20.44426816554905   -7.11243029193443
C         -20.19729007095665   20.54932663081699   -6.74955903592385
C         -20.60743594393545   19.59410633831305   -5.76028552410665
S         -19.23115566381899   18.56504206097503   -5.32880930930897
C         -21.82148805427512   19.45097181507980   -5.20944265125443
H          -7.70355040507961   -3.11160022332653   -1.94879941458497
H          -3.70227475529191   -5.18886442808835    0.23617923043452
H          -8.29379008161170   -5.72536451736144   -2.77291027735707
H          -3.31799305966338    0.35677378982700    0.89121781962930
H          -6.43588341831089    5.50634065346018   -1.82192702199339
H         -10.47319992802290    6.49194230822223    0.88961327885428
H          -9.08823412184065    4.52351740430444    1.39695475761570
H          -6.44135571558919    9.34512909975910   -3.24176925195878
H          -5.72280883342815    7.79971721603886   -2.78089834241941
H          -6.91823770575957    9.83350246368082   -0.83833556610761
H          -5.19621000585488    9.56246593224581   -1.12948981326570
H          -6.17126409947230    8.29788713795392   -0.38661094592767
H          -9.03471502525184    6.60405654208412   -3.87770794739086
H          -7.29109245753909    6.39195048078093   -4.03207895342243
H          -8.92559001221992    8.71354247983134   -5.15391683608805
H          -8.18797643736591    7.39653757716280   -6.05766242481737
H          -7.16295515766310    8.58488049008706   -5.26205759450621
H          -8.66886388119734   10.44307210705272   -3.65874342186383
H         -12.11602059496501   10.77630766395793   -1.13549248223089
H         -11.52616046440390    8.68380801835609   -0.00408249148827
H         -10.00359136187259   12.31510145792276   -3.87916672795460
H         -12.72659823741207   12.28766493773625   -2.47705333618455
H         -12.61606802729029   17.57280902576068   -6.86798705912401
H         -13.82432047185645   19.33235069633118   -7.94517109350166
H         -16.12839387887628   20.46174422261262   -8.11349169781448
H         -18.41737843490100   21.07361896509007   -7.83923016448377
H         -20.89238663544540   21.26936918003597   -7.14332240797536
H         -22.63604898155132   20.09437544467913   -5.49315589267990
H         -22.01654321425552   18.69541813888180   -4.47036138446631
