108
 SCF done       -203.839948560113          0.001688428328
C          -2.27982277249972    1.93866687365783    3.24866177415584
C          -2.54937782041578    2.31733166271286    4.53949061392253
C          -2.07548927099194    1.62697911114400    5.67294548309534
N          -1.70947187507011    1.10384867346368    6.62760194997310
C          -3.39571900124223    3.38447308221720    4.90943524594333
N          -4.11611853687180    4.19298316733038    5.29080397658083
C          -1.56222992603598    0.72735060839244    2.85525810046181
C          -1.67205783996935    0.58158070886814    1.45164699958652
C          -1.11468807215275   -0.46614798102091    0.76146670104770
C          -0.39518026148206   -1.41470808405685    1.49553890433863
C          -0.29114151230765   -1.26527188559185    2.89804259397576
C          -0.86755780710809   -0.20918624499355    3.59626477135063
S           0.64122645612946   -2.54926286891649    3.60833505108502
C           0.88106847830034   -3.25128247131553    2.03066538343640
C           0.29377807835859   -2.56548515665498    1.02249569626225
Br          1.88462190947005   -4.82672985362120    1.85886542720978
C          -2.44372670992940    1.71346386942830    0.90748590076418
O          -2.74862236468823    1.85704013484882   -0.26512187562495
C          -2.73341662380311    2.59477950151887    2.04002642868126
C          -3.21308430488522    3.88752594027524    1.97580747511074
C          -3.69036416462627    4.59161021248087    0.86848822886888
C          -4.08742226044828    5.95380008528055    0.84735221398994
N          -3.86877582351342    6.81442103216935    1.96364023182782
O          -2.89669018377748    6.59898297377455    2.66131537025141
O          -4.65260916735717    7.72392838933599    2.14325703387762
C          -4.63997957985803    6.39090842558318   -0.35402800140758
C          -5.09888562023800    7.77353182734510   -0.66524831912718
C          -4.68170586048543    5.35348825521440   -1.30730384158311
S          -4.02223443635267    3.87553911555804   -0.67852313762100
C          -5.13920672265209    5.43923661607012   -2.62932672892203
C          -5.10729652908597    4.40383238087886   -3.54012279130543
C          -5.50963675297186    4.43968443986665   -4.90067867275647
C          -5.31681354113425    3.27158694538313   -5.57865800292186
C          -4.75731866196999    2.24766501137057   -4.78495885097521
S          -4.50055078842028    2.81751134199514   -3.14754381277550
C          -4.39216094055968    0.94934497966181   -5.08369481808547
C          -4.47798302735970    0.22332254410303   -6.29766918986759
C          -4.00583978419215   -1.04718331501427   -6.21196963185958
C          -3.52086871339801   -1.40673040967269   -4.91875646123362
S          -3.69943231364438   -0.03911438967320   -3.82295468986165
C          -2.93372504316750   -2.58753117396702   -4.58711787680272
C          -2.49600055383379   -3.01074460026592   -3.27807764747312
C          -1.43623866882369   -3.91709771374585   -3.10360308478818
N          -0.51244030888261   -4.36723052093510   -4.03033443064234
C          -0.07420240848837   -3.53318131117164   -5.12649745021121
C           1.34880480379897   -3.01752088027528   -4.91548177829654
C           0.23653484961582   -5.36700442826269   -3.43900339117596
C          -0.14623129519037   -5.48929603660980   -2.07936203402508
C          -1.20627773917763   -4.54321848038938   -1.86192920968854
C          -1.94999933572795   -4.19715833365971   -0.74295473747843
C          -2.92138484516780   -3.22104236565222   -0.88262077878035
C          -3.19629252254017   -2.65625898828203   -2.11776669378823
C           0.45570691960116   -6.40679357707428   -1.23671671470895
C           1.43345236426389   -7.23766039983643   -1.75992695365465
C           1.73938724482755   -7.19865922630399   -3.10600001969746
C           1.13789934008868   -6.29675493543662   -3.99777651239282
C           1.32346214896636   -6.41876769545063   -5.41665982940171
C           1.69871293759815   -7.54506616987655   -6.07210756795437
C           1.80126881326185   -7.65780523028108   -7.47994998376215
C           1.23529758584585   -6.92495501868841   -8.48710020768452
C           0.17007368388270   -5.95322125444930   -8.55284502654628
C          -0.91312499680520   -5.83898793330429   -7.71205503726578
C          -1.90721428432683   -4.84901826908929   -7.81717221180848
N          -2.71156108382639   -4.02715126529217   -7.78493737860686
C          -1.18586261190826   -6.71557527937882   -6.64277313430026
N          -1.48247972348791   -7.40286995948405   -5.77272213036426
C           0.29981384500947   -5.24146679089658   -9.82194734657164
C           1.26768006319002   -5.90354024612741  -10.61704671845946
C           1.84083634269901   -7.02424602423754   -9.84340005388152
O           2.66117682621916   -7.83244761358259  -10.21356588390578
C           1.57179936645768   -5.50557374415107  -11.89528965603304
C           0.89587569546480   -4.39346015923549  -12.41091754373735
C          -0.05499923649923   -3.72732755508035  -11.60221636479045
C          -0.36836421363377   -4.13517518763490  -10.31120212335546
S          -0.76607415410455   -2.37658740490595  -12.43320897310952
C           0.20325250522151   -2.72587193558745  -13.83989155521250
C           1.02240855484945   -3.79410120329602  -13.69396869546821
Br          0.04318426861530   -1.64430815891172  -15.36416860857245
H          -1.22858244123660   -0.55178677482669   -0.30795834840696
H          -0.75558763090898   -0.13938522410086    4.66532695254140
H           0.34062004766298   -2.85590558639653   -0.01100243867769
H          -3.17933964430659    4.45564870665187    2.89814233656501
H          -6.18565772075610    7.79141034766949   -0.74422606098904
H          -4.68125911291813    8.10512236934137   -1.61441744886066
H          -4.81539101317014    8.47062744773241    0.11737775397243
H          -5.53680252347683    6.38513320107975   -2.96913127196498
H          -5.92134064163778    5.33236391020919   -5.33812257544822
H          -5.55549484586314    3.12664766047417   -6.61735108502506
H          -4.88058755716469    0.66666144454094   -7.19090664536298
H          -3.97757962195913   -1.75440820414144   -7.02211052922972
H          -2.83154254460831   -3.31162483938332   -5.38718991815924
H          -0.74912573596277   -2.67617519151667   -5.17503039563973
H          -0.15892462244390   -4.06360937954772   -6.08063772553643
H           1.39741451180437   -2.43455504817473   -3.99838138853400
H           1.63152586603846   -2.37729910434694   -5.74728658241956
H           2.06732488032155   -3.82942860254664   -4.84108668946432
H          -1.77726053846195   -4.68037466762588    0.20599221911860
H          -3.50514579221858   -2.91903886894142   -0.02651121659702
H          -4.02357825028281   -1.96983183336571   -2.20026364241079
H           0.16612040772690   -6.47581676088730   -0.20064112280194
H           1.93719856092883   -7.94274541208578   -1.11757852277112
H           2.47999468110572   -7.88159149902955   -3.49155880792648
H           1.11366990337894   -5.55194099839793   -6.02138535144717
H           1.98694266689775   -8.42118130947028   -5.51039370323654
H           2.48198201290088   -8.42366843653041   -7.84129433039335
H           2.30428689769010   -6.03756139744910  -12.48155140235819
H          -1.10021840023894   -3.59358759396482   -9.73495989878002
H           1.68690772049294   -4.14874653686576  -14.46050954655494
