91
 SCF done       -184.025380636154          0.000910681329
C          -4.10754921924690    0.61740989873746    2.22779059974551
C          -3.36404017781040   -0.29328071983288    1.51751739525527
C          -2.65245330530665   -1.36141733446826    2.10043328046747
N          -2.04792544231581   -2.24793304785452    2.51034001318176
C          -3.20167795429304   -0.31315496546482    0.11741714799721
N          -3.01734997810953   -0.41098350183461   -1.01254978452296
C          -4.27358373239246    0.61238405719453    3.67926280349554
C          -5.12892153987812    1.68015013490727    4.04221511792182
C          -5.47748341442614    1.94255631256504    5.34407453484677
C          -4.95433314747612    1.11153195145658    6.34032001781591
C          -4.09951950911686    0.04760706141126    5.96933906809903
C          -3.74870436595130   -0.21862392513574    4.65130423489457
S          -3.56230326698993   -0.85348527278976    7.35552993715957
C          -4.48128517463509    0.19837063647093    8.39911995661125
C          -5.15645586469580    1.17362422393739    7.74657619271835
Br         -4.46306029038850   -0.09026981433992   10.25283022339918
C          -5.53983118434523    2.41365990744288    2.82643062817110
O          -6.28058865201248    3.37604380473864    2.79236913251064
C          -4.86429083904905    1.73205291126752    1.70119930345558
C          -4.93718442480100    2.12786578383652    0.38806544144561
C          -5.66681914175774    3.23303873925348   -0.07763108454243
C          -5.66375069840844    3.59986570803911   -1.39367481274145
C          -6.35553624383688    4.71770927428249   -1.89048187414354
O          -7.10739891341951    5.50726862682572   -1.07671772709315
C          -7.62727558315529    6.51368192983354   -1.81451564592587
C          -7.20788801820571    6.38013102690643   -3.13729751500477
C          -6.39913126307294    5.23220163755430   -3.19083674747430
O          -5.77998471253571    4.71898601938869   -4.26769256687266
O          -7.48214310015490    7.15538207185413   -4.22197254782367
C          -8.46318325981761    7.50090442959211   -1.23319202511151
C          -8.85823911825303    7.49425500813283    0.06515643420007
C          -9.70398299342394    8.46800908049329    0.67669986614072
C         -10.03036725478905    9.63315594760140    0.08095703908557
N         -10.86676992041761   10.58977919058678    0.58476176142801
C         -11.23416341616679   11.70217894781832   -0.10997861814797
S         -11.65769920717660   13.15963628005951    0.73154216934123
C         -11.77854566910114   13.98610451452361   -0.79201879208140
N         -12.17404848702390   15.32488714512073   -0.76642033659986
O         -12.27330449999984   15.90996019198750   -1.82940406712733
O         -12.39811556539760   15.80753493223706    0.33274721881071
C         -11.50338724777932   13.18505139095566   -1.86896867628466
C         -11.21737758879927   11.85842326497373   -1.50203524668087
C         -11.03581235660154   10.76710812837956   -2.43168279420810
C         -10.36567699989604   10.84946377323062   -3.60375962326001
C         -10.20703410193826    9.75124408499944   -4.48099125425861
C          -9.38685148435426    9.75858707863204   -5.57757956447821
C          -9.18965922254904    8.70622163553458   -6.51250714517554
C          -8.29368685121718    8.99485010688188   -7.49355039785877
C          -7.71738650957812   10.28217350187901   -7.38221620140465
S          -8.37089866669657   11.13013711859831   -5.99952020838485
C          -6.75944921953066   10.87053765077496   -8.18237265542275
C          -6.13839340490665   10.35764520163413   -9.34517168618370
C          -5.22499240985645   11.20240625639247   -9.89276983562370
C          -5.06078065768938   12.42673870232093   -9.18741770735378
S          -6.13508487334518   12.45953126583120   -7.80362278079942
C          -4.20369098449552   13.43278945057781   -9.54811253572973
C          -3.96117365854892   14.64488345587407   -8.86971051585861
S          -2.94445469202386   15.86712125769209   -9.62275060690225
C          -3.07392217972216   16.97435485359911   -8.31827282946708
C          -3.86008884059751   16.44632898463783   -7.32241898838080
C          -4.35446300321291   15.14108099187844   -7.63837968637870
O          -5.09278032723981   14.65818552346018   -6.61680694752303
C          -5.08575326759387   15.62975612989347   -5.66764302233290
N          -5.79342541464238   15.37531214051076   -4.46811979775453
O          -5.76097430837402   16.25084339639849   -3.62424402972704
O          -6.37698461869593   14.31754432336209   -4.36312059419000
C          -4.36346076757437   16.73614036439018   -6.02392346789179
H          -6.13211671000949    2.76488527841792    5.58696501609476
H          -3.09236167206834   -1.04127690976588    4.42268541119579
H          -5.77144253486904    1.90768677388875    8.23441679427625
H          -4.38535742053933    1.56572944793319   -0.35431299507475
H          -6.23509628675853    3.81668713159730    0.63047307367072
H          -5.10140630191390    3.03685752883720   -2.12590800550782
H          -5.97048692535168    5.28481362235346   -5.02788391101104
H          -8.01953797971897    7.91338533793255   -3.96509975257806
H          -8.79186719620454    8.27838272785255   -1.90934058348940
H          -8.53235965565642    6.67111303402788    0.68424243582385
H         -10.08764140345940    8.24021824890215    1.66119987279767
H          -9.60849989693983    9.89405879740684   -0.87612508011849
H         -11.13354040540055   10.52939346560424    1.55904239532008
H         -11.55128356311358   13.53869868472458   -2.88262711221426
H         -11.47165897450196    9.81880338075818   -2.13910472364295
H          -9.87573861543426   11.77436506333422   -3.87778505208935
H         -10.76179479131865    8.84523031605363   -4.26941365839996
H          -9.72307874124049    7.77584286329125   -6.42868389165101
H          -8.02462481785733    8.32072793751299   -8.28675774026073
H          -6.38455441768897    9.38962174828063   -9.74336849898285
H          -4.65272767792663   10.99103744610990  -10.77875558840521
H          -3.64628449187162   13.29426315638320  -10.46482007350154
H          -2.57366600815356   17.91893431352037   -8.36024339061127
H          -4.22113130497587   17.61590176818982   -5.43151151482738
