99
 SCF done       -187.604566983035          0.000634212567
C          -7.04573655499872   -1.70608321005553    1.00107253036816
C          -6.05583702077504   -1.84556420420127    1.93746210234744
C          -5.88470450126669   -2.99189743172511    2.74202896849621
N          -5.69388265573242   -3.89903460332020    3.41884239744853
C          -5.09997287404586   -0.85789675249023    2.25723728692129
N          -4.30982698438633   -0.09344188735079    2.58844768228661
C          -8.10567240203996   -2.66876423308665    0.73350733397659
C          -9.02839579685977   -2.09086978413121   -0.17237334448918
C         -10.14728894090684   -2.75503014032781   -0.61304054803755
C         -10.36565471735024   -4.05279998754176   -0.13931800405139
C          -9.43363731251714   -4.62524528354156    0.75962732129153
C          -8.30333429155007   -3.95316199362101    1.20683316341830
S          -9.88764986482933   -6.24144438216006    1.20769236950171
C         -11.30453748658654   -6.12734846165939    0.19794856019966
C         -11.43321007531285   -4.94096109201442   -0.44281411890611
Br        -12.47896306813115   -7.58492355576805    0.08380683602520
C          -8.57176310586765   -0.73879285307777   -0.55279346591227
O          -9.11106416136403    0.00428553341643   -1.34308770519263
C          -7.28516071480525   -0.54142403674709    0.16468619065487
C          -6.41230511632181    0.47943395384610   -0.05304236850791
C          -6.62405483737372    1.63060767175732   -0.88393870476539
C          -5.61848170891894    1.96785773163442   -1.75837070687706
S          -6.06819630280822    3.10560619074749   -2.94677234715255
C          -7.65031300707636    3.23620123145322   -2.23103482157571
C          -7.80225980239824    2.44140868605759   -1.08899756969482
C          -8.97905524601724    2.57420520179421   -0.31724649273298
C          -8.98010407223589    2.04771974790750    1.09542791088683
C          -8.83014725108702    3.20868387130790    2.08469560283171
C         -10.05607713095780    3.30160658801736   -0.81261221854589
C         -11.38197709512220    3.25736636701616   -0.09820354302799
C         -12.35219854358316    2.35360818396000   -0.86285575794817
C          -9.93687180733190    4.02305194591697   -2.02767673268124
C         -10.87992623942733    4.84318983014705   -2.76162001014483
C         -10.31333907212293    5.39421615231286   -3.87480224181220
S          -8.66308784552761    5.00051340585657   -4.11851140345466
C          -8.69694883131796    4.01486266240873   -2.69173331641831
C         -12.26598638599187    5.13432702875828   -2.45111843217685
C         -13.21412795651891    5.30356417268326   -3.38717958958116
C         -14.59624222439722    5.63860072180889   -3.13593972863048
C         -15.43461263215132    5.92112523158708   -4.21240438888213
C         -16.77001795497346    6.24910286516106   -4.04248418821647
N         -17.49653028133228    6.49130168101367   -5.25689257162423
O         -16.85792388567782    6.88394150356736   -6.21463667568889
O         -18.69580770374642    6.28437842118531   -5.28590036728309
C         -17.35231351390578    6.33192559064323   -2.74934710133924
C         -16.48691769216824    6.02952441090650   -1.67843089309717
C         -15.17139447674537    5.69152902107334   -1.85586860329837
C         -18.70039374802350    6.74563942765417   -2.55090619449576
C         -19.42838871234491    6.89136024754645   -1.40154960594840
C         -20.78622753226243    7.32689862753910   -1.39861832058371
C         -21.36270946081804    7.40013746713093   -0.17188789180592
C         -20.50101932747863    7.02966477668881    0.88805328001701
S         -18.92997215200895    6.58711386887758    0.25683528477990
C         -20.77133900338275    6.99515219379540    2.23806842044235
C         -21.98362066956193    7.31868690742473    2.89455088771069
C         -21.93029118689342    7.18402721227032    4.24496720267321
C         -20.67165939880362    6.74784466739125    4.74132553216632
S         -19.55706073271428    6.51117612462125    3.40749317624985
C         -20.35693993401574    6.54236377894765    6.05587421732023
C         -19.12276880201038    6.11897069682060    6.58216041462353
S         -17.68796202783090    5.74731744907067    5.64105278663189
C         -16.73582901291591    5.35089626062964    7.01423576370236
C         -17.46805028827553    5.49023678158335    8.16991317446091
C         -18.80508996292344    5.92066300382062    7.91531655198937
O         -19.49884893046944    6.04819874060628    9.06490501047631
C         -18.62282852435552    5.70533529539731   10.04838488661431
N         -19.08745599914112    5.74799455214979   11.38570720366267
O         -18.28518760935336    5.43798269051939   12.24588638950834
O         -20.23501815640854    6.08495029550185   11.57814824065566
C         -17.38321988610459    5.35847724183666    9.58357426175878
H         -10.83177509367611   -2.28844169513685   -1.30410710358831
H          -7.61943639051004   -4.43391609900407    1.88609602594667
H         -12.24554076432162   -4.70151358194447   -1.10442814183576
H          -5.40321923644696    0.37779490218203    0.32865097692698
H          -4.64855966657673    1.51052804462425   -1.81284848639797
H          -8.13183301271057    1.38790314880473    1.24801536859508
H          -9.88154857803777    1.47213240896803    1.31030613564253
H          -7.88883130675222    3.72397630794159    1.90690008812565
H          -8.82619918873051    2.83048891364313    3.10454715097235
H          -9.63448349133270    3.93238560175021    1.98491089545477
H         -11.79125608274023    4.26068952334524    0.01214973107258
H         -11.26801108115874    2.85737862111076    0.90489042654333
H         -12.55155977657876    2.74096823190475   -1.85844148372676
H         -13.29580845066939    2.27083696273558   -0.32745847794141
H         -11.91748798285063    1.36183661330215   -0.96495125792983
H         -10.78525707445950    6.06854092794094   -4.56240947444940
H         -12.52396281742694    5.25491995567109   -1.41246661818488
H         -12.95436968030343    5.17788268079775   -4.42999064803178
H         -15.04795611426614    5.88188005622825   -5.22086470582571
H         -16.87417690217355    6.06450823003939   -0.67441094551897
H         -14.57652007624729    5.45648121349656   -0.98757136273588
H         -19.26143040652411    6.97819474534358   -3.44599998831366
H         -21.28750303338019    7.56653950571031   -2.31956155310417
H         -22.37775281484955    7.70771751277419    0.00342535547860
H         -22.85417390777703    7.63879963959449    2.35112517140241
H         -22.75036375626442    7.38275572298709    4.91179106914320
H         -21.12964414521141    6.72284651575993    6.79172416085106
H         -15.71748295075162    5.04709925119616    6.89014565700785
H         -16.54800401258991    5.05742611865671   10.18107306714408
