93
 SCF done       -175.827589723538          0.000490434636
C         -17.19531901926425   -1.76128904242144    1.77122003595237
C         -17.29202586682866   -1.61502818060057    3.14255579143457
C         -16.51206405718115   -2.35234267203399    4.04595455481011
N         -15.85530667156828   -2.91019973973706    4.80871813875080
C         -18.09794781163786   -0.65987187104041    3.78713626179412
N         -18.73287836409976    0.09602866856782    4.37593180126366
C         -16.30734802155474   -2.71844233044654    1.10589910052394
C         -16.28553930475081   -2.41200089205093   -0.27389274539964
C         -15.45267182802230   -3.04244376664100   -1.16257475612131
C         -14.62412787509455   -4.05784482899826   -0.66783337494663
C         -14.73795981751247   -4.43267939779791    0.68822966714342
C         -15.56334787105628   -3.77281100483026    1.59400802224683
S         -13.68842336592390   -5.76554330312183    1.06955028540339
C         -13.05391562387489   -5.73293815063644   -0.55139215557946
C         -13.63351504311873   -4.81396939815898   -1.35622407656972
Br        -11.64926257016516   -6.89197852325856   -0.99931987292379
C         -17.26612808350101   -1.33698250212924   -0.54011252262564
O         -17.60719548240311   -0.95219015645834   -1.64464633379047
C         -17.77650459334535   -0.91895555012493    0.77412794608098
C         -18.77876378141174    0.04155106530494    0.97284660377282
C         -19.09112938403735    1.10239891392641    0.14213420885855
C         -18.23869231250704    1.67577555817995   -0.80564549646648
C         -18.57459589830388    2.47462118332890   -1.91129098618409
C         -17.51805066318111    2.74045853095146   -2.75198031111947
C         -16.30917835722910    2.18761347265950   -2.31025520172667
S         -16.51875853907069    1.45355683372322   -0.74402254814059
C         -15.10699624204156    1.93395590061035   -2.97224655079226
C         -14.64945766250434    2.25790285422564   -4.25649034585370
C         -13.48636336152582    1.61207153847742   -4.59978901046620
C         -12.98712889983919    0.74672148186141   -3.60742267221227
S         -14.00105269900657    0.83692177110569   -2.19093644509953
C         -11.91548410187023   -0.12920994543613   -3.72293145116807
C         -11.51967401024790   -1.06905473111735   -2.78323859057682
S         -12.33530881204241   -1.17826447192161   -1.24617523326823
C         -11.34081392672092   -2.47581516225331   -0.67379569493098
C         -10.41212815308286   -2.86331406504053   -1.67209210200249
C         -10.49926512652769   -2.06411740664237   -2.85516314438552
C          -9.62271555524696   -2.34776378911463   -3.92309871445848
S          -9.62995487083962   -1.41049075116079   -5.42214262459732
C          -8.72646594429800   -3.39279103876809   -3.81128000531950
C          -8.67198669283831   -4.18002188112057   -2.66401113053937
C          -9.49853769073622   -3.92360910837340   -1.60087307695088
C         -11.62528649951857   -2.89922155520251    0.63333585722052
C         -11.00908610288803   -3.82416698600384    1.42701913668822
C         -11.50816888396892   -4.15437279871193    2.70665818441767
O         -12.62415361917734   -3.54615138402684    3.20388844658495
C         -12.91785056049669   -4.08821241998313    4.37657656679956
C         -11.99639582590191   -5.05551211972980    4.70694531121928
N         -11.92731368885704   -5.73252589450651    5.94512930628483
O         -12.92854516632385   -5.76103144218262    6.63006123474998
O         -10.84976300892976   -6.19910928845236    6.26756209634411
C         -11.07175937601634   -5.12396755176592    3.61862269006620
N         -10.01268148650915   -5.96350100167639    3.44774702247541
C          -9.91420492350736   -7.22669442723365    3.96290406072772
C         -10.92983974613868   -8.08436942427786    4.36744436826898
C         -10.42004882631113   -9.34996301335364    4.81147420293831
N         -11.26281945617028  -10.31955963845868    5.23181674065136
C         -12.52884979564069  -10.03548769212862    5.18708055128078
C         -13.05026413413111   -8.78202926711408    4.73266577279857
C         -14.53198313390663   -8.57553713200114    4.70862259255438
C         -14.94676084663711   -7.14458223905057    4.39625751369085
N         -12.25605473600812   -7.82244478673275    4.33788444203075
C          -9.03639168794625   -9.45775575878672    4.74063287741389
S          -8.36499165446390   -7.97769726322330    4.12992575096981
C          -8.24882909187151  -10.59165261400127    5.10078280417768
C          -6.91840212432796  -10.65364015720070    5.03336761012323
H         -15.43342229773176   -2.76053708306847   -2.20358637943258
H         -15.59895873476719   -4.08951735826240    2.62255438032694
H         -13.36849291737491   -4.66331360526347   -2.38716390576345
H         -19.41917284870510   -0.09699403206548    1.83618178000264
H         -20.07089800057837    1.55210230513372    0.24305386930405
H         -19.59102527046993    2.76445019971214   -2.11205569115766
H         -17.60429668007390    3.26852899832304   -3.68508785011347
H         -15.18168941550502    2.93081381826249   -4.90465267941317
H         -12.99949512727683    1.71399749241516   -5.55394414254591
H         -11.37961912702089   -0.07834179379586   -4.65762472160713
H          -8.64910800657449   -2.09877917958461   -6.00764017425912
H          -8.05793613708314   -3.61395890854684   -4.63083211031571
H          -7.97192581638130   -4.99949163556049   -2.62215901627734
H          -9.45553804471333   -4.54986392950983   -0.72863438602281
H         -12.47770327620859   -2.39619249002697    1.07617542198256
H         -10.13223081824312   -4.36257705099835    1.10829240651800
H         -13.78150104965840   -3.72269502179683    4.90557334858463
H          -9.27115501723251   -5.65794391926999    2.83310337768545
H         -13.20658766757801  -10.80648358845217    5.52954760904114
H         -14.93571923071105   -8.87693124579908    5.67899449040415
H         -14.94765598098023   -9.26058543823897    3.96118679106700
H         -14.63183591933344   -6.48077952990380    5.19588406086100
H         -16.02773029563718   -7.08248976906450    4.30023444818413
H         -14.48944132041685   -6.81514695436738    3.46672717796544
H          -8.83415499638216  -11.42973712669982    5.45431232564680
H          -6.33427105886853   -9.81645178567492    4.68642150901047
H          -6.37949661270235  -11.53706962579223    5.32368767513606
