107
 SCF done       -198.107829359185          0.000635672287
C          -7.58381719525989   -0.31426391092706   -5.52935232772837
C          -7.99874520363438   -1.39291076738756   -4.79650770002805
C          -9.10605434745673   -2.19620358082341   -5.14241527990070
N          -9.99336831086246   -2.88423962880500   -5.38144685989009
C          -7.44927601837132   -1.80090257277017   -3.56019298144460
N          -7.10917258416160   -2.16815084910752   -2.52767374767637
C          -8.26779380103750    0.22661447968491   -6.69786250331429
C          -7.68997618309540    1.47882009826725   -7.01435920744108
C          -8.13167274661189    2.25887896573006   -8.05554566773120
C          -9.19160473247107    1.77461297285684   -8.82800672473250
C          -9.75812987219888    0.51695076054919   -8.51035285440623
C          -9.31444601697882   -0.26865989557761   -7.45368362641802
S         -11.05292300614746    0.10788489756965   -9.59473699339680
C         -10.82034059276353    1.61212802798925  -10.44565814987503
C          -9.82432079683666    2.38191142240391   -9.94722737596516
Br        -11.91309749055744    2.02457577884080  -11.91328551705716
C          -6.58718280510621    1.77071923236372   -6.07589507795110
O          -5.94523886844583    2.79894509380623   -6.05383449594504
C          -6.45884177052430    0.55926964096999   -5.22707788622269
C          -5.41795385133325    0.21346835291508   -4.41372543329080
C          -4.26821589145219    0.96006095342688   -4.08244307281055
O          -4.08455155711624    2.25360655849517   -4.44452004764889
C          -3.15567670562214    0.55866343686914   -3.35634596989599
C          -2.52154921078017   -0.58313658115506   -2.66924606971844
O          -2.91475755131363   -1.69749747545898   -2.47102631642393
N          -1.31334727621820   -0.05533753697549   -2.21721058846797
C          -1.05310662247431    1.25163626935446   -2.60048688736152
O          -0.04207730478146    1.86396252064431   -2.37131052948294
C          -2.27936993172269    1.65891585053825   -3.30458206461446
C          -2.89442871229752    2.69171692911684   -3.99427826860706
C          -2.48490762304115    4.03600556385632   -4.25169146568161
C          -3.19765434125393    4.87109401492228   -5.02938152029181
C          -2.82040765200348    6.26367699827027   -5.23649434958859
C          -2.64258437737617    7.08177242750844   -4.16363411921411
S          -2.24645121794421    8.70896479537555   -4.55924463660145
C          -2.23718231601949    8.29278772464627   -6.24418155080507
C          -2.58558658331268    6.95319396468252   -6.48223676631765
C          -2.62283348517143    6.47605684452153   -7.81208267426707
C          -3.10392877228088    5.07005524908072   -8.03624146014504
C          -4.62329034054889    5.04886003417118   -8.22390693616208
C          -2.24789309719300    7.29829932609932   -8.86966899731520
C          -2.46811486722778    6.83916661401223  -10.29090913513516
C          -3.30015640727066    7.83702932366283  -11.09845766587604
C          -1.74012727085121    8.59447772963838   -8.59939916608196
C          -1.07134188123563    9.55965107296868   -9.45920666728774
C          -0.86522301001027   10.75715917648465   -8.80942801693989
S          -1.33178236308069   10.76408352975180   -7.16846280046501
C          -1.83776330343614    9.10028473763820   -7.29578808838396
C          -0.43761163459770    9.22306286224719  -10.68387764719264
C           0.34047961118096   10.01573432417299  -11.48627445450371
C           1.24713049077347    9.52208804321279  -12.43536786372167
C           1.74511826223586    8.23094149356316  -12.53601209909164
C           2.81792003763924    7.82275996588515  -13.35737978101371
C           3.25066717010233    6.53924165772617  -13.13679893410701
C           2.51710748668446    5.85911453120478  -12.15533816547958
S           1.25816401572420    6.88442419230887  -11.52706258419948
C           2.68029539206052    4.58848764866035  -11.60052739356654
C           3.77214967605379    3.71149270411243  -11.73635431439608
C           3.67571054668122    2.62096536068534  -10.92185278236835
C           2.49003640420169    2.57708319930821  -10.14464244602737
S           1.46589544811399    3.94128786983634  -10.53138566875242
C           2.28327633262741    1.64104814865292   -9.15851236070664
N           1.22226757284485    1.46120498628045   -8.35738760776301
C           1.20058953449028    0.59296501351252   -7.26948762696937
C           2.41294752079911   -0.07231262207452   -6.73686230404505
C          -0.09058758402714    0.50773124112716   -6.84511205562731
C          -0.93404734612433    1.29890753270112   -7.68306511272169
C          -0.14452635937418    1.96284376063596   -8.62467174526802
O          -0.35977530891768    2.78852884154564   -9.50092258481931
C          -2.25763699222380    1.08107871676392   -7.21802739777869
C          -3.49785018660823    1.58391101445695   -7.84801035650482
N          -2.28449872213997    0.30555444229632   -6.15462031269837
C          -0.99845292169847   -0.08528234325093   -5.81937847599945
O          -0.68852745626254   -0.75696910547785   -4.85829275651309
H          -7.67546373507421    3.21356187193565   -8.26696200092259
H          -9.77625696388912   -1.22098919746488   -7.25405504862936
H          -9.54613990044159    3.33877435377501  -10.34976654686732
H          -5.41060475251313   -0.77444788254132   -3.97071303031742
H          -0.60655599322868   -0.64095714108112   -1.79615195321986
H          -1.54590131327445    4.33168401046182   -3.80700476935049
H          -4.12547669499962    4.52005625448589   -5.46238836304292
H          -2.76772613013664    6.81557255071354   -3.13203681666877
H          -2.83534118357994    4.46951039399516   -7.16715367340921
H          -2.60119812039721    4.61718358111863   -8.89055504871328
H          -5.11662874733660    5.49964637583712   -7.36583501977711
H          -4.98134124433756    4.02840263824802   -8.32480559110699
H          -4.91336900607726    5.60960425921733   -9.11012545934830
H          -3.01298576329555    5.90017636016552  -10.28913608491429
H          -1.51806486079435    6.63343910977802  -10.78702935617283
H          -4.24964784078259    8.01710103222811  -10.59829459220480
H          -3.50421495019715    7.42929608920365  -12.08601138992616
H          -2.79663386538891    8.79134387270064  -11.22244816443356
H          -0.39527607816663   11.63205634429600   -9.21351536139865
H          -0.50481312039143    8.18544452652733  -10.95082751265875
H           0.29955499799222   11.09157721796824  -11.38050198702155
H           1.71426482755871   10.24502393723332  -13.09205398460216
H           3.26706095089092    8.49349330752907  -14.06868979779037
H           4.07385040792173    6.08337779738867  -13.65734157998271
H           4.60803261948067    3.91556796854729  -12.38153297016452
H           4.42648066244652    1.85406119990352  -10.84371847984101
H           3.10012915954822    0.94738319390971   -8.98775813847804
H           2.80676717945737   -0.80588025165703   -7.44296994076977
H           2.14283919776540   -0.58820025093906   -5.81949075279507
H           3.19564612840990    0.65536906735071   -6.51987370299961
H          -4.14901397514200    0.74335156183960   -8.08691001839124
H          -3.26332098550181    2.13937375915770   -8.75118762892747
H          -4.03474603023134    2.21876003706814   -7.14558416162358
