101
 SCF done       -187.446865388807          0.000381559997
C          -5.79613280236206   -3.03432147253769   -5.44889866413674
C          -6.72411318158124   -3.97113277733153   -5.09245780210063
C          -7.13522046969589   -5.03514774297572   -5.92622285507185
N          -7.50690606552015   -5.91968369767895   -6.55537187694860
C          -7.39211395961665   -4.03464667469084   -3.84883862994309
N          -7.98331748877037   -4.16588326081313   -2.87424702940709
C          -5.09588494506328   -2.96921035257532   -6.72368598002998
C          -4.13434749606004   -1.92946446614149   -6.67356146935411
C          -3.31417659880665   -1.62694839291015   -7.73403799684270
C          -3.45663782623284   -2.37654197593884   -8.90543654827616
C          -4.42332782743983   -3.41152550453952   -8.94905109923344
C          -5.24602227571310   -3.72325579424533   -7.87557409353362
S          -4.43295650382485   -4.21203686677582  -10.49122430061816
C          -3.15788215401550   -3.16138970641933  -11.04877961256881
C          -2.74420807420577   -2.25655935832745  -10.12944632360616
Br         -2.49486534202780   -3.35577348922911  -12.79142964263115
C          -4.16483485251106   -1.28838367252525   -5.34428634185173
O          -3.36160049887435   -0.50281483127967   -4.90585319912933
C          -5.32577812164003   -1.91487648567008   -4.63252021194140
C          -5.82795100906927   -1.49425875567476   -3.45820362676275
C          -5.41774216484747   -0.25647247587028   -2.79633043781847
N          -5.26676054842449   -0.30290916177695   -1.47465762903619
C          -4.89445518373408    0.82213355680181   -0.88553424624706
C          -4.68172106768067    1.99643580002821   -1.58378897979354
C          -4.90665597831890    1.95879195678183   -2.96918086137986
N          -5.28490101632107    0.81908055937126   -3.55259295074585
C          -4.74440085838617    3.07439234839966   -3.86674683600509
C          -4.46519750196748    4.34638060229871   -3.51707159724082
C          -4.28601821337281    5.40198235493252   -4.45123942313026
S          -4.29929086750375    5.10883287663440   -6.16154467450323
C          -4.01763076945097    6.79784379622091   -6.51015023984559
C          -3.95747940105651    7.54205722578916   -5.32935548197816
C          -4.08547970894747    6.75106062601482   -4.18037577553477
C          -4.02808356846240    7.31701265308891   -2.79451818782197
C          -3.47216787588334    8.73798111776540   -2.80280096115639
C          -4.18809217765583    9.57135299898507   -3.87564216875115
N          -3.89505335651388   10.99056566485462   -3.85235510606295
C          -3.81506793720946    9.02705597160809   -5.25801225747418
C          -3.87861943462466    7.15438446920390   -7.86709352275100
C          -3.47542789440212    8.36036620318452   -8.37068901858789
C          -3.35951286035105    8.62888502884989   -9.73940505584746
C          -2.95742624862830    9.84971203048962  -10.23236727697677
C          -2.81287322165059   10.23727134355045  -11.58336916329807
C          -2.41536044850163   11.53147705192578  -11.75474527346050
C          -2.22434088740206   12.23290872558176  -10.54522285668506
S          -2.55576577484201   11.20040410068210   -9.18202982121676
C          -1.84300322450260   13.55437340939590  -10.36800843373335
C          -1.57402394887555   14.52705730706417  -11.34996279976634
C          -1.24457414098981   15.74888145166710  -10.83472274025256
C          -1.23598221492877   15.79649629892973   -9.42427832445407
S          -1.64982859410626   14.23355125895378   -8.76739401799154
C          -0.93645143488227   16.89309170874221   -8.63476234375740
C          -0.96094821728959   16.85929614201397   -7.24737819086949
C          -0.66127137995287   17.86757176217519   -6.35364176931662
C          -0.02483400223958   19.14430758871269   -6.51251534355290
C           0.88416079100598   19.51228115015667   -7.47948302326853
C           1.48258640104642   20.78427517782114   -7.55219079086350
N           1.98583412299194   21.80965177272169   -7.67721124416855
C           1.42039527694414   18.64035966669154   -8.44607051939268
N           1.93552129973885   17.97081616264749   -9.22500603734195
C          -0.34197416650239   19.94107554113667   -5.32538712782445
C          -0.98133907245373   19.10433581001132   -4.37755672838572
C          -1.15288058716590   17.75764540376667   -4.96431928828837
O          -1.62916399912005   16.77680478961651   -4.43152210129346
C          -1.36921693598407   19.55189949466699   -3.13953256002874
C          -1.12629625156767   20.89400883706211   -2.82480468852956
C          -0.50171372657669   21.72440634936072   -3.78303080371947
C          -0.09987511478792   21.26846825419233   -5.03400759696959
S          -0.30883529461756   23.34807815583567   -3.19326448823209
C          -1.05635709347964   22.89233254917514   -1.68526985803668
C          -1.43310459278055   21.59372792450410   -1.62501309734858
Br         -1.27042024928449   24.17546754533351   -0.33293971331361
H          -2.58860918991727   -0.83202389247374   -7.66176732667427
H          -5.96615969768555   -4.51990393849229   -7.95868623496219
H          -1.96823605653506   -1.53426514072760  -10.30569751277268
H          -6.59383914340486   -2.05327430518807   -2.93880092817234
H          -4.76361372945768    0.76645994979476    0.18779348143502
H          -4.35925906586619    2.89265218285455   -1.08111832625539
H          -4.86157977699883    2.81852075149850   -4.91123574627157
H          -4.37540598094168    4.62200568040836   -2.47539850275740
H          -3.41000903335670    6.68013000503179   -2.15707165222308
H          -5.03874093660931    7.32316149954639   -2.37264839636503
H          -2.40067614581625    8.71789382033073   -3.01846309330796
H          -3.61083539560732    9.19140377362511   -1.81857904688308
H          -5.27110981007373    9.46836354752595   -3.73272708955568
H          -2.89850634553571   11.15524038932488   -3.94875288316590
H          -4.19683583412329   11.41075489304833   -2.98111882850053
H          -2.77858645271275    9.30964074476002   -5.47205252449365
H          -4.45038861546263    9.50633635886327   -6.00433896299139
H          -4.08995183671800    6.35988583179433   -8.57303172336216
H          -3.20946032911411    9.16541302797208   -7.70471862862270
H          -3.60078902803199    7.85128638455836  -10.45196271040138
H          -3.00861080528464    9.55055259533184  -12.38798940120873
H          -2.25671876879481   11.99442818647789  -12.71187496709114
H          -1.63287766602011   14.31022343057165  -12.40139688853617
H          -1.00075503753573   16.61397001917200  -11.42491054886389
H          -0.70092413100961   17.80999674278341   -9.15381449037758
H          -1.34454891465616   15.95448216751559   -6.78325226023850
H          -1.84632859586858   18.88957427159965   -2.43430212539326
H           0.36967592010798   21.94161207600806   -5.73183877655907
H          -1.90818078772620   21.14515528676093   -0.77167316736643
