90
 SCF done       -162.934158342257          0.000759380560
C          -4.68212005301755    0.71816158263633   -2.54100980421390
C          -4.66190776005538    1.56264855754225   -3.62956828352462
C          -3.97985284041364    1.27165353815621   -4.82456985478961
N          -3.47737972077096    1.02787270852112   -5.82813925740797
C          -5.28744840115126    2.81697470544256   -3.61124056028494
N          -5.69862358203501    3.89153520655177   -3.56437941080848
C          -3.77018609889441   -0.38410510299662   -2.28928242088937
C          -3.91188687218593   -0.77002270864100   -0.93383017155808
C          -3.14077000180399   -1.75127986288327   -0.36229836705517
C          -2.19622465754328   -2.39209617353607   -1.17167522280182
C          -2.07495761380660   -2.01000727721147   -2.52829968271238
C          -2.84171340946411   -1.00418139657790   -3.10274738785334
S          -0.85220410725770   -2.93563940859285   -3.34519439906580
C          -0.51547895003483   -3.80094009127269   -1.86908113128994
C          -1.28277473885084   -3.42341455381021   -0.81971345533130
Br          0.81955141227983   -5.11807389760203   -1.85027241331974
C          -4.96926921275091    0.04094241293638   -0.29341848238839
O          -5.29637338379256   -0.01743288237313    0.87828799393970
C          -5.50947500252713    0.88932458749018   -1.36520130804556
C          -6.70343030843903    1.56015910889911   -1.45088300203678
N          -7.61359276649141    1.87195008116426   -0.53686110763945
C          -7.52126879231827    1.84842486004144    0.90915806478968
C          -8.23717813295246    0.61382394553588    1.45559250335917
C          -8.35425769790905    0.69384913258136    2.97516658629100
N          -9.21685581712253   -0.38173947861247    3.44488557639765
S          -9.91660896463078    0.17591024431828    4.94419364445639
N         -10.23114682981741    1.68421985618798    4.22542930570691
C          -9.04735725880740    2.01586753186756    3.44402134779362
C          -9.40496836566246    2.91834317058269    2.27191114488377
C          -8.18109557846197    3.18087362927556    1.39635051205645
N          -8.59535177795909    3.94721264554157    0.22855013189867
S          -9.01347316368838    2.78702006473381   -0.95013466909224
C          -7.79473968512383    5.01601971363215   -0.19451966627910
C          -8.11521323988820    5.83014194338971   -1.19873391965322
C          -9.36801889473773    5.69620259353484   -2.00754789999449
C          -7.14902179006183    6.89407270418341   -1.66138419088284
N          -6.67106917158136    6.56861639911195   -2.98380297454440
C          -7.23868599580983    7.03610228544107   -4.10691027139262
C          -7.12165332957543    6.39641575746135   -5.30569287105626
C          -7.65590275718610    6.84013363064912   -6.52121344791405
C          -7.65315865765477    6.06115016099352   -7.65313527104824
C          -8.16960402986997    6.34969533420793   -8.93503895316039
C          -8.06047331680411    5.32520942510077   -9.83017382915146
C          -7.45420599141924    4.16645372349136   -9.29822981554865
S          -6.99904311253433    4.42357736547641   -7.63467138486983
C          -7.22002873628925    2.94368713884215   -9.89833986014115
C          -7.52153919926226    2.50252874071092  -11.19981343670453
C          -7.15800511422885    1.21064533955862  -11.44290934849958
C          -6.55480876364722    0.55279295229714  -10.34007700723573
S          -6.44916616258392    1.65437645365218   -8.98555960657574
C          -6.04832580082745   -0.72289200318764  -10.35033459130146
C          -5.48006438377028   -1.44762292142918   -9.28350617182053
S          -4.37075719694312   -2.75221352724677   -9.68570124649894
C          -4.10578829787732   -3.15688254908406   -8.03236483266545
C          -4.83072977644393   -2.34588474410795   -7.21836860980121
C          -5.61016045908958   -1.37758372918760   -7.90477089098588
S          -6.69287134715755   -0.45011261177076   -6.90188352516781
C          -6.24364436649572   -1.18597350254728   -5.39193696144288
S          -6.95809646371605   -0.77762374451970   -3.97573427570547
S          -4.98087867507696   -2.39087995261536   -5.47871026765041
H          -3.25760374802529   -2.01571804860636    0.67713752244146
H          -2.70816074875139   -0.73775185226231   -4.13807566430160
H          -1.20801730041081   -3.85154186361714    0.16334851098790
H          -7.01727280658501    1.85725666848118   -2.44621983154347
H          -6.46833982807752    1.80525255278219    1.19585065797277
H          -7.65897464165878   -0.26994573661205    1.18511931313681
H          -9.22907070507440    0.51941132206764    1.01124997027031
H          -7.34528311170842    0.64617252513956    3.40984023140717
H          -8.73008437544672   -1.25896709102638    3.57694541703449
H         -11.05142578629642    1.61174872875398    3.62828523384174
H          -8.36499856006997    2.54498439393033    4.12052918675387
H          -9.79098220256375    3.86830903425561    2.64375448734472
H         -10.18572044688656    2.45519776467319    1.66554085048219
H          -7.45520040717816    3.76924464102258    1.96526278230381
H          -6.88294900080183    5.16868407779031    0.37015205647700
H          -9.75668998711409    6.68170712892861   -2.25907687129497
H         -10.12773295877767    5.14967201553302   -1.45320283667654
H          -9.17550980226794    5.16631466455759   -2.94091836179251
H          -6.29562529818484    6.95564602020763   -0.97961722162526
H          -7.64195185456718    7.87029208409305   -1.69773644953875
H          -6.22357812557140    5.65679511983263   -3.07852316329633
H          -7.78273585258039    7.96920867154485   -4.02131473151432
H          -6.60774446569405    5.44410531346459   -5.31541515110840
H          -8.11667242978258    7.81789427849258   -6.57459451421998
H          -8.61115505193131    7.30557125712830   -9.15884228773301
H          -8.40302498539457    5.36886952735421  -10.84869397072252
H          -7.99906854645044    3.14297546681299  -11.92028040616636
H          -7.31037370528740    0.70112945495925  -12.37801023641390
H          -6.01907599848719   -1.21985952339823  -11.31122526946360
H          -3.44714210440430   -3.95602570812556   -7.76507054509330
