101
 SCF done       -181.895650886797          0.000753934640
C         -13.25210369913726    2.44598106400904   11.12935266738375
C         -13.45945650692872    1.08319687936535   11.18268789892506
C         -14.02438496790670    0.41339987091513   12.28368924677896
N         -14.48188585152540   -0.19498360318735   13.14498452162320
C         -13.13887321570719    0.16143088444565   10.16838640422564
N         -12.90709950862426   -0.66242615027983    9.40007007968833
C         -13.58288071520598    3.38380722074189   12.20329339291964
C         -13.20129108505375    4.68512611254153   11.79790540257451
C         -13.39141367184295    5.79317093262167   12.58432940125961
C         -13.99263875166588    5.61009671278130   13.83533161349975
C         -14.36977306622334    4.30766676569035   14.23205635080045
C         -14.17361684428425    3.18456874319581   13.43526172772671
S         -15.10083511861340    4.30654112896593   15.80959466239129
C         -14.89257683463220    6.03475496257743   15.91008737253978
C         -14.30556313278657    6.58558360654309   14.82213606601754
Br        -15.47206430713643    6.94953977388829   17.44295586796220
C         -12.61400441608270    4.61706331564984   10.44137527838161
O         -12.17803617482202    5.55800261861020    9.80373142847801
C         -12.68564349577291    3.20000265558089   10.04815873002328
C         -12.31172445294199    2.71080605605251    8.80351775440838
C         -11.80401194571616    3.47964645830200    7.77240893902422
C         -11.53925418141436    2.97401433000139    6.50344142999277
C         -11.10858050187820    3.70000733552000    5.38320232744100
C         -11.02306021609530    2.95199614849273    4.23308118571373
C         -11.36935674796623    1.60875753689894    4.41450484992818
S         -11.78970243993911    1.29677236061750    6.07619295112363
C         -11.46610139390864    0.60834468854840    3.43634636362354
C         -11.37622286919721    0.75723122063691    2.05101066998295
C         -11.64286315097080   -0.40365899013141    1.35659238999238
C         -11.92033229137565   -1.49990090688569    2.17335812005580
S         -11.83686609053692   -1.04097757188702    3.85500065970861
C         -12.28803776085734   -2.78641735527465    1.75348234356342
C         -12.42485273709389   -3.87524050669586    2.56761286310353
C         -12.92630967532037   -5.11457188067083    2.13953828709331
C         -12.96891887376985   -6.31276287632610    2.85056292573985
C         -13.58733242903718   -7.34598095252423    2.17447241666996
C         -14.07463144683035   -6.97598256015169    0.92177087018696
S         -13.68650049415707   -5.31021600627265    0.58145356140059
C         -14.86019958139041   -7.72033167970191    0.03011617707132
C         -15.22018910827150   -9.06939177657772    0.08596806167918
C         -16.09618926833874   -9.44408961279614   -0.90491601934777
C         -16.46226395095416   -8.40697751329442   -1.78131732017686
S         -15.62609919403809   -6.93997259050160   -1.32370738630750
C         -17.47537871624048   -8.49925815819145   -2.72765495324559
C         -18.01737753244086   -7.56384407853689   -3.60294880163815
N         -17.49449013003563   -6.39512813889099   -4.12325026676181
C         -16.10998202734450   -6.01142575640828   -4.19932408835301
C         -18.44513697896659   -5.67473549560476   -4.85966188559658
O         -18.17630912014529   -4.64063532336500   -5.44232129315935
C         -19.66199204329446   -6.45560964534266   -4.76339350672584
C         -19.35121818606383   -7.62609443257306   -4.05441298039059
C         -20.54717025655326   -8.41999478674387   -3.92931601791072
O         -20.76457054377218   -9.50070814939630   -3.41897606630073
N         -21.53569909506295   -7.65717136740591   -4.58707498078556
C         -22.87957818692501   -8.15654222863255   -4.67423167780885
C         -21.03859934857990   -6.47103287034034   -5.07228061855241
C         -21.77272232089903   -5.43546875534210   -5.69149174103799
C         -21.13200521392131   -4.22161998392067   -6.12858984540979
C         -22.09402009118107   -3.36633362919211   -6.62532175513556
C         -21.99619982347921   -2.05855138695478   -7.14473888638394
C         -23.15673339724339   -1.44200542182040   -7.53209698757662
C         -23.41259806290658   -0.14657480160696   -8.06810855106118
C         -24.77737091561711   -0.00774421266991   -8.27905799497700
C         -25.41222200629229   -1.22003168422639   -7.88249235062736
C         -24.44493983360716   -2.10949110825231   -7.42239776158000
C         -24.54516223190091   -3.40998597299651   -6.91793586649387
C         -23.37838631837011   -4.03475120938136   -6.51866393836496
C         -23.14501881016490   -5.30640449987406   -5.94970435101991
C         -25.41445706936722    1.17559607879625   -8.80551672246449
C         -26.72169447948066    1.32944839430765   -8.99881243778585
H         -13.09022552871484    6.77217517029918   12.24575024241639
H         -14.48219687170869    2.21362311088183   13.78447389787983
H         -14.10191353188905    7.63557602813443   14.71621995045255
H         -12.45259572323106    1.65494714629650    8.60744432378547
H         -11.63570516724406    4.53456214548824    7.93452588371785
H         -10.88883248052256    4.75095924133518    5.44215807721581
H         -10.71992051711034    3.34569943438680    3.27969285926244
H         -11.15031180951383    1.69862824623606    1.58438803166529
H         -11.64310688336166   -0.47786958221597    0.28345897867989
H         -12.48421839880798   -2.90274649221816    0.69412865446308
H         -12.14567330971829   -3.79596092466060    3.61040260154084
H         -12.55240823773257   -6.40369176057338    3.83798365942772
H         -13.71625731066974   -8.33527724226364    2.57484704244178
H         -14.84284399871732   -9.73523949687832    0.84079781197056
H         -16.49434399840064  -10.43709574203119   -1.01420322876121
H         -18.04421969067878   -9.42140359749026   -2.68934900578121
H         -15.47287476253790   -6.89396077890882   -4.20452154708920
H         -15.82679564715768   -5.35670300628191   -3.37294791759500
H         -15.97919705220277   -5.45589585130599   -5.12986887192328
H         -22.86512926487992   -9.15712361791248   -4.23850592725635
H         -23.20644990646907   -8.22117234257636   -5.71305989001512
H         -23.57015424134400   -7.53324744672992   -4.10270472421553
H         -20.07620549915081   -4.03288921928136   -6.06386941545419
H         -21.03398334445184   -1.57264555366047   -7.21787678240936
H         -22.66351476883082    0.59743695020581   -8.26926384731721
H         -26.46774167275187   -1.41529845623382   -7.92913860413307
H         -25.50535002876696   -3.90038510582166   -6.83823057048415
H         -23.91832807883500   -6.02163391827418   -5.75173554357990
H         -24.73843716235112    1.98550502797041   -9.05035860981194
H         -27.43215051483694    0.55343238049658   -8.77083736988005
H         -27.12780969116541    2.24333702790270   -9.39611636737928
