99
 SCF done       -175.795790837200          0.000888374139
C         -10.19238344671488    6.34568037771222   -0.00480613577080
C         -10.00367485460504    7.31144166308507    0.95509279423553
C         -10.86439343536973    8.40880152025621    1.15068216432133
N         -11.52255494171621    9.32881731168524    1.35091149465156
C          -8.95823356073981    7.31836327701297    1.90011077589788
N          -8.15188413337897    7.38711437171771    2.71604514606777
C         -11.34130084853246    6.26193935427740   -0.90423065321213
C         -11.23879060906133    5.06083949043751   -1.64642832815523
C         -12.17099649152184    4.68654524718511   -2.58060770079953
C         -13.26145059836309    5.53938304873206   -2.79188025528442
C         -13.35403371647288    6.73660775854805   -2.04740559503498
C         -12.40805176609343    7.11598225610017   -1.10110053492466
S         -14.77519537190511    7.64506419250076   -2.47087140060839
C         -15.21878576124776    6.41695546657584   -3.62542199724295
C         -14.35009275461737    5.38103514580131   -3.69326905973181
Br        -16.78776733727824    6.61818698334754   -4.63550119745946
C          -9.99559122744072    4.36091041534813   -1.26015507548832
O          -9.56605739865930    3.32989546409849   -1.75779462155960
C          -9.36118466201290    5.19083144718201   -0.24032469901965
C          -8.08238746671993    5.01020035736964    0.26638531227868
C          -7.28240952650740    3.87379082256319    0.30229543987607
C          -7.61037647563892    2.52700463632715    0.26842588266311
C          -6.64709461094917    1.49412799008857    0.43092762952927
C          -7.17454793730396    0.24660544225896    0.54111864152226
C          -8.58692985428075    0.23204079590476    0.48632258289603
S          -9.20603927350831    1.85213283439753    0.22656525994665
C          -9.41598836789464   -0.86203339128891    0.59783988131029
C         -10.83259881939956   -0.88417928753363    0.53751583131380
C         -11.37328829989439   -2.11471067184195    0.70795339356386
C         -10.42084373662716   -3.15533632777791    0.93310851425440
S          -8.79418794853444   -2.47206886792044    0.87166682058180
C         -10.70539201177541   -4.47425352688192    1.07577471745905
C          -9.76272332968198   -5.54596059716433    1.31618058633595
C          -8.79154848842711   -5.47294955221113    2.31712311567617
C          -7.85836826833530   -6.49486608361985    2.47816008787054
S          -6.81836648342637   -6.30302053467096    3.87614408465764
C          -7.96493014858482   -5.05136103300876    4.56405030627928
C          -8.65687872943622   -4.40778381931416    3.36949243141000
C          -7.83822232990896   -7.56526549738839    1.60128840966531
C          -8.81501280265867   -7.66064439870813    0.61133651422907
C          -8.67482477627805   -8.87752011153441   -0.25882127896258
C          -7.75559201443982   -9.85936026839271    0.46249848848828
S          -6.71218111457393   -8.89778241159669    1.62650518171852
C          -9.80684137245572   -6.70024978105824    0.48968046135070
C         -10.83926200329257   -6.91478207318124   -0.52728662833377
C         -12.14596083804689   -7.02660773383211   -0.24756305970489
C         -13.17182140602415   -7.33580719756453   -1.19426921532772
S         -14.79067514940243   -7.63232770751390   -0.62885111256433
C         -15.35635731514432   -7.97925322711341   -2.23842704191013
C         -14.32218076219678   -7.84660457384000   -3.14502706639628
C         -13.10672757357743   -7.48992258211451   -2.56260934602054
C         -16.71059082216986   -8.36094249244274   -2.43611385589691
C         -17.26454905493895   -8.70465296670753   -3.62468416076435
C         -18.61347737617336   -9.11899490345487   -3.76058723806371
C         -19.16673284661512   -9.49116488375555   -4.94091121483043
C         -20.50390986512415   -9.93398202896502   -5.09530348769081
O         -21.35503959425758  -10.02113028655343   -4.03949470041839
C         -22.55145123948715  -10.48097243366816   -4.48835506897525
C         -22.47047688866753  -10.69378333976522   -5.85738236477068
C         -21.16270955158931  -10.34521401641905   -6.24875937928047
O         -20.64289783651327  -10.39857445416199   -7.49536798217492
O         -23.41785866436467  -11.14931824498855   -6.72509833533926
C         -23.64371102058929  -10.67682405744485   -3.59530978796942
C         -23.59307835828317  -10.44366486600643   -2.26774675232838
C         -24.70297472807335  -10.64726641900423   -1.38350540477269
C         -24.65283253451583  -10.42059076012935   -0.07052953822288
H         -12.06531302454789    3.76621794971164   -3.13341140590374
H         -12.52060501275340    8.04211808603350   -0.56265862235559
H         -14.46877950362330    4.54004786113747   -4.35193710629744
H          -7.60823075852895    5.89751628081386    0.67003425755679
H          -6.23202387466140    4.05879793392403    0.49857842084887
H          -5.59488138729275    1.71542520930217    0.46265916101586
H          -6.60690375708352   -0.65996297930027    0.65969232844451
H         -11.38804149089983    0.02050993615266    0.36346371621955
H         -12.42738085066213   -2.32863797523458    0.69126340674596
H         -11.73562844886886   -4.75649643304177    0.90946253509559
H          -7.39131329380031   -4.34436213795062    5.15776428688142
H          -8.67057318407103   -5.57876653681053    5.20790267253606
H          -8.02877596676026   -3.59853309135570    2.98654574731295
H          -9.62264808320165   -3.98609139370017    3.65073880442177
H          -8.23646104214979   -8.57659530691385   -1.21592538181613
H          -9.64318207268208   -9.33744998578454   -0.46116677213968
H          -7.09715451776631  -10.40304672019276   -0.21057239851282
H          -8.32180254298402  -10.57192374612558    1.06299081321291
H         -10.48554431924350   -7.07623725568332   -1.53674540494948
H         -12.47897647899782   -6.93121399676330    0.77866557614383
H         -14.44688252772538   -8.00829573275611   -4.20033739504203
H         -12.20181744027288   -7.34558813909189   -3.12552220916474
H         -17.32673731769677   -8.38983084593836   -1.54649415150783
H         -16.66528971866558   -8.68290388858823   -4.52440701204784
H         -19.22275013625523   -9.14790048279789   -2.86764338709445
H         -18.58980601951715   -9.47340877338963   -5.85431624147913
H         -21.33185633383538  -10.72235875482743   -8.08999518130435
H         -24.23280833896191  -11.33034353164975   -6.24554551289243
H         -24.56199248873864  -11.03882093916183   -4.04209768239543
H         -22.67049034480653  -10.08408874144654   -1.83524683831618
H         -25.61992285752939  -11.00571543248740   -1.83489667995750
H         -23.75343297927789  -10.06420538789545    0.40345183431716
H         -25.50259135440529  -10.58268530971623    0.56915515008895
