96
 SCF done       -177.684534475400          0.002070172668
C          -3.89697161818804    2.49413359082611    3.26524314378612
C          -2.55810662267421    2.33585588244135    3.52699366963250
C          -2.02358329522593    2.10488375428795    4.80924142660016
N          -1.54173728510724    1.92278536999818    5.83591934974686
C          -1.55581483912670    2.37301930791239    2.53806238932085
N          -0.71218205582242    2.38766870156866    1.75894690501010
C          -4.97600479788803    2.42367653302725    4.24762569162438
C          -6.21841094556575    2.57982765313908    3.57870874040961
C          -7.42198809835693    2.56548691639765    4.24009503786768
C          -7.40138472689545    2.40085893703813    5.62968709906078
C          -6.15849284163855    2.25260862489816    6.28837403740207
C          -4.94008780326378    2.25714758880838    5.61799039431659
S          -6.36091642386325    2.07915979578963    8.00477401220696
C          -8.08981759214483    2.20853366115240    7.81756381826700
C          -8.49640575258861    2.37020059805011    6.53590335129430
Br         -9.19480705896958    2.12064608766555    9.33067776354336
C          -5.96080316584177    2.78239642163452    2.14713129596184
O          -6.78867170630445    2.97098930287108    1.25735008759337
C          -4.50783137095569    2.75182793598044    1.98520665455441
C          -3.91403893511704    3.03809534431870    0.77614205726057
N          -4.66929853044603    3.31448872154804   -0.29042645082375
C          -4.24941117300259    3.78044484756066   -1.49295999922543
S          -2.56193968368600    3.99704685491185   -1.85267362033690
C          -3.00565130115946    4.68878254691036   -3.37878932473497
N          -1.99354591431658    5.05597934169464   -4.26530023919701
O          -2.32856501609367    5.53486491404847   -5.33848955668254
O          -0.84172575993945    4.85988347884604   -3.91331574535491
C          -4.35857765505673    4.74364003218003   -3.58695221235140
C          -5.10100555341837    4.19438987258104   -2.52480190876270
C          -6.51785816864904    3.96256024124699   -2.53928602789337
C          -7.33523838482165    4.45331974143299   -3.49212899377733
N          -8.63148448589989    4.06930147769933   -3.63536995105836
C          -9.53896405126324    4.49953623310528   -4.59046789309244
C         -10.88113131900780    4.51953051632296   -4.32367372119536
S         -11.82159274620938    5.12454712841130   -5.62128326004827
C         -10.41145381259620    5.34663727607239   -6.56709659236074
C          -9.26388309396939    4.96241681818573   -5.92684658805780
N          -8.02844825585147    5.05683749286680   -6.54831997308845
C          -6.97197520283747    4.20777168914034   -6.38931030311520
C          -5.75570995842376    4.43309054714184   -6.94919606837505
C          -4.56458168374100    3.71156016224904   -6.69942406700718
C          -4.35432430701193    2.64481071482655   -5.86566782861210
C          -3.08264205910570    2.12142078514828   -5.50869777819527
C          -3.11223227714383    1.10862905046956   -4.60062889738225
C          -4.41588261097611    0.72392095310956   -4.21334417574912
S          -5.60191165204207    1.73048661389201   -5.02185368602353
C          -4.81793479225380   -0.30100051164259   -3.38712101524027
C          -4.03597217630004   -1.18756214601205   -2.61021114984879
C          -4.75955124302669   -2.13888790683553   -1.96515159039016
C          -6.16522486766264   -2.08613356436003   -2.20000899656351
S          -6.51905770814650   -0.70731691514004   -3.23420679407785
C          -7.05416735124302   -3.03707879181042   -1.79452537041950
C          -8.44490109848519   -3.16739831692932   -2.05829478032334
S          -9.04342268266403   -4.81194100486544   -2.17784817458404
C         -10.62094620041807   -4.25623831447301   -2.54022129804922
C         -10.70758794366995   -2.89579584786828   -2.54257762963647
C          -9.47114877125578   -2.26528774190578   -2.25896715912673
C          -9.38558396299766   -0.78380216790529   -2.07565023181190
C         -10.76577435212002   -0.22635007141293   -1.72555721496029
C         -11.18174237829271   -0.69907622983679   -0.34157673304818
O         -10.44666495045437   -1.18407603166713    0.47516386242428
O         -12.48515462373601   -0.48020577252766   -0.11904469280632
C         -12.97509394677831   -0.87869167911300    1.15377204988619
C         -11.77473956323558   -0.64057519307477   -2.79926711144356
C         -11.98887556027853   -2.15326768827389   -2.77567658821660
H          -8.35140147180119    2.68365856182026    3.70532642632422
H          -4.01952156305443    2.14223907772886    6.16542463930084
H          -9.52545963521597    2.46587451502819    6.24060638329582
H          -2.84029818299680    3.08508130907667    0.65173004689573
H          -5.68682529734932    3.26719052465482   -0.10336986499451
H          -4.77351445996134    5.14317367240866   -4.49223099235721
H          -6.91916532902035    3.28228350144767   -1.80113662905976
H          -6.98168253209502    5.17890945547864   -4.20495239967155
H          -9.01571575634494    3.49826208145775   -2.89498516586700
H         -11.36062418772638    4.22260784651261   -3.41257077488661
H         -10.49311724424348    5.73894717816724   -7.56071813179667
H          -7.96345294057702    5.73338532850644   -7.29687229540077
H          -7.15829136760212    3.35897550712859   -5.75386196752433
H          -5.65148223648212    5.29186560291248   -7.60095362748788
H          -3.67288129603834    4.11322978577585   -7.16221682304569
H          -2.18020869291649    2.53073540735240   -5.92844242977108
H          -2.23836903621305    0.61320210347036   -4.21589970741356
H          -2.96557515014587   -1.09654845526176   -2.55473911070419
H          -4.33505871062578   -2.90534456843038   -1.34024777037310
H          -6.61475141951131   -3.88747279127940   -1.28581157403397
H         -11.40337470263206   -4.96540231059787   -2.72642421913861
H          -9.03558243770743   -0.30538977212406   -2.99421961478151
H          -8.67428581116916   -0.55621286006046   -1.28011858362124
H         -10.71742306776892    0.86786629430344   -1.67570718535975
H         -12.69853860831058   -1.91502474625980    1.35823294093295
H         -14.05556400983706   -0.76735432479333    1.11559328190286
H         -12.55408524770076   -0.24437054136304    1.93626908216452
H         -11.38067358064612   -0.33668669165614   -3.77144350830441
H         -12.72712139085829   -0.13368750402769   -2.64179351680145
H         -12.43820597586306   -2.48149761401592   -3.71610813266257
H         -12.69175291613613   -2.41177973367315   -1.97850022513197
