123
 SCF done       -238.963744389064          0.000624142136
C          -3.75594586422100    6.02418566433186   -5.44903121003687
C          -3.62679952644873    4.79408149381124   -6.03041773261158
C          -3.06133768591026    4.57321473079379   -7.30457093752306
N          -2.61312934696151    4.33624373544183   -8.33411979773939
C          -4.06170787110449    3.58479064182760   -5.44530425549631
N          -4.40955887062603    2.57007024294189   -5.03760404861044
C          -3.36922611931958    7.30113500560222   -6.03385204668665
C          -3.72295270739083    8.34899434906762   -5.14532771908617
C          -3.47925827223955    9.67174097390712   -5.42766361363641
C          -2.85692118799595    9.97759636517610   -6.64187909573491
C          -2.50490961538777    8.92508871709349   -7.52166290778581
C          -2.75125688847872    7.58832081942493   -7.23811388397621
S          -1.74092614758218    9.52501055772329   -8.96207156599716
C          -1.90264178788458   11.15801084531713   -8.37240315709028
C          -2.49788097751514   11.25202706959796   -7.15947034365974
Br         -1.26969436605577   12.58365024812838   -9.41240227066351
C          -4.34168232265434    7.77826454965831   -3.93596258129392
O          -4.74443251159046    8.36903691389897   -2.95871630868209
C          -4.32770402721079    6.30605658278647   -4.14147384419771
C          -4.67487363722021    5.44611005262153   -3.16178757486815
C          -5.20806871727161    5.88754827420193   -1.89382476095520
S          -6.83908517111240    6.37386902807434   -1.63633025467167
C          -6.55215513666378    6.66883343289755    0.07278335904778
C          -5.20227786647930    6.42124990981508    0.37956673852480
C          -4.46254341341907    5.97788193138392   -0.74462214184137
C          -3.04117300467772    5.66280388785462   -0.77387690717198
O          -2.49111326684142    5.29610345292536   -1.80162184028862
C          -2.35721475058006    5.82340025257062    0.51564257641603
C          -0.99809395997283    5.54082367806315    0.61776315610408
C          -0.33695196494686    5.68766713063934    1.82121695247842
C          -1.01749663929778    6.12494382911408    2.95419800070882
C          -0.32031287622267    6.24178430796961    4.27620328834480
C          -0.49565594706402    4.95045745144403    5.07960553799145
C          -2.37337277846735    6.40409202565467    2.85102610989160
C          -3.05829663079798    6.26088998285456    1.64832728959320
C          -4.50587240468521    6.57690324643388    1.64197041762185
O          -5.04849223357493    6.94666597393627    2.67831633724474
C          -7.62494987856599    7.02032311405681    0.94632269470612
S          -7.36934206505808    7.17323525451220    2.66927205937709
C          -9.05854471611099    7.41649735116719    2.96873425964733
C          -9.79129001438262    7.39500575348429    1.80551742065609
C          -8.98719558497173    7.22919148334728    0.65196998530789
C          -9.59049030657113    7.42148545029673   -0.65889363163207
O          -8.99426746640711    7.24265616374600   -1.71476384049307
C         -10.97710190307095    7.92689123368198   -0.67185673386496
C         -11.51105325157577    8.39134336411609   -1.87176245866700
C         -12.80820074682071    8.86452110605506   -1.92797005514487
C         -13.62137702835962    8.85975373647821   -0.79849468907088
C         -15.01925760735576    9.40052282114796   -0.84109642384440
C         -15.07444722421469   10.78908097371418   -0.19933732469572
C         -13.09797026053271    8.37300276379392    0.39318859816291
C         -11.78817305768538    7.92395881124038    0.46882209498382
C         -11.26296096128143    7.43677604137853    1.75614020341506
O         -11.97178054024538    7.07412504401641    2.67177697182310
C          -9.50800606923623    7.66965333901907    4.30065453976266
S          -8.72992629956823    6.84968440431829    5.60865480454664
C          -9.74074495293864    7.63805604095466    6.78992309502971
C         -10.63705618864842    8.49614480183938    6.16468850917618
C         -10.49511610441460    8.52930253698451    4.75640657498434
C         -11.22957414551145    9.49845806455580    3.93037440132761
O         -10.92905433583726    9.77112371700531    2.78083245020004
C         -12.35398384358273   10.15786672502360    4.61754840511929
C         -13.24209316921992   10.91352868809712    3.85585628658607
C         -14.31941697602820   11.54508719377682    4.44500165178835
C         -14.53193894884518   11.45406222184777    5.81807544533030
C         -15.72118777499976   12.10295029260101    6.45915294648318
C         -16.88869719918336   11.11475197387827    6.52517485203146
C         -13.64206064662193   10.70817847803084    6.57947712708492
C         -12.56053544663476   10.05504630631729    5.99948381133554
C         -11.66052785227612    9.27500116394816    6.87675167229170
O         -11.77821223812845    9.27199792920000    8.08731635008514
C          -9.52426313093390    7.49929933654060    8.18662229111705
C          -8.86928244981011    6.51002583501399    8.84347024725163
C          -8.44742652105039    5.18557418218772    8.42583025326469
C          -9.13633887438736    4.35777276763257    7.58182758025551
C          -8.74217356353914    3.03626628565436    7.29073264930593
N          -8.44250884286951    1.96145293260626    7.02319086487180
C         -10.36940683950821    4.72000889148389    6.99612074738275
N         -11.39755607195083    4.97000066785100    6.55372306084638
C          -7.34147518389172    4.79458083107623    9.28971375889785
C          -7.26659774643170    5.70996274824138   10.37064651538603
C          -8.28537914852921    6.76658582768102   10.19368506877448
O          -8.54667699783311    7.67744131612625   10.94015085317224
C          -6.34442566899945    5.57837849031370   11.38093899724802
C          -5.44876883476775    4.50605082762935   11.31185070278923
C          -5.52217321077475    3.60911586681907   10.21815014131034
C          -6.46188706449741    3.73293344731666    9.20249314996559
S          -4.30906367857045    2.37060533486136   10.32455906998956
C          -3.73004582219873    3.06014866167116   11.81835032455690
C          -4.40821917089182    4.16194513233841   12.21801097504049
Br         -2.28251341107174    2.26284265187461   12.70431507638328
H          -3.75943000684670   10.44668529023632   -4.73145787682740
H          -2.46119695544318    6.82258264226608   -7.93811244041874
H          -2.67633809677912   12.18079430717185   -6.64904332236400
H          -4.55166228112811    4.37705274492726   -3.28181834433697
H          -0.47999483476415    5.20428547753381   -0.26789112436516
H           0.71802222750370    5.46441623436772    1.88549476108504
H          -0.73916105700434    7.07592442432607    4.84186621902190
H           0.74349679980055    6.42898859689617    4.12100166507722
H          -1.55079499697676    4.75359092132059    5.25444503310489
H           0.00721302242969    5.03241135613241    6.03988117973788
H          -0.07461570822931    4.10663606650092    4.53781795741971
H          -2.92772426536182    6.74439656484035    3.71392939386986
H         -10.88638889904647    8.37961511977754   -2.75250090160871
H         -13.19975199962391    9.23657129194682   -2.86377091642333
H         -15.68713268577137    8.72925308805830   -0.29707311618699
H         -15.36291109835379    9.46427613548873   -1.87492007122595
H         -14.76794446772220   10.73690892330566    0.84267142609267
H         -16.08594368843005   11.18515356014968   -0.24451677913189
H         -14.40891480692444   11.47425404478421   -0.71995641149692
H         -13.70001532512973    8.33968079772211    1.28981529025832
H         -13.06105109738341   10.98859256044719    2.79332667999968
H         -15.00214792897790   12.12213462990202    3.83770628954156
H         -16.02215189086435   12.98035586340149    5.88378681649903
H         -15.46584502917790   12.42357482718873    7.47044410588122
H         -17.16827044944923   10.78953122832482    5.52562525169424
H         -17.75163526561367   11.58184884648153    6.99289732497447
H         -16.61023438935328   10.23834247477826    7.10526844881879
H         -13.77370258853204   10.61996948692073    7.64841331849070
H          -9.85686523123205    8.33844815308229    8.79175164794855
H          -6.31298633058557    6.28104991491103   12.19868924700832
H          -6.48179285059452    3.03189871524188    8.38427209169614
H          -4.18498429111425    4.71162197783417   13.11405381091017
