86
 SCF done       -169.046832680445          0.000524769071
C          -3.36976866704915   -1.03780725694208    1.91248088003239
C          -2.73160961918084   -1.57896112549863    0.82467260469706
C          -1.95584699862795   -2.75547410666052    0.86972494525912
N          -1.31137546822898   -3.70565574307149    0.83627496761331
C          -2.73519366803815   -1.05566503892675   -0.48546928423396
N          -2.67265095079934   -0.70945500654334   -1.57900508589068
C          -3.32918524601463   -1.58317297687030    3.26777589352602
C          -4.06959862337697   -0.73061903103559    4.12296668746296
C          -4.22304848059789   -0.97499404508700    5.46533422402318
C          -3.61681674648589   -2.12066622072054    5.99239446634400
C          -2.87963100983457   -2.96710284246450    5.13199962869912
C          -2.72355450356112   -2.71766456457520    3.77339687286316
S          -2.21677278338071   -4.32715522314538    5.98712365816456
C          -2.93028816979439   -3.74743087795634    7.46864078683586
C          -3.62853341969536   -2.59549912355986    7.33289046392454
Br         -2.68625092323905   -4.71831073543930    9.05503519537313
C          -4.61229752177661    0.38997482646323    3.33189921814005
O          -5.28816419041572    1.31088019155063    3.75794159265624
C          -4.18156848015653    0.15941942847312    1.95151600289009
C          -4.53977003278229    0.93082982313702    0.87272936416523
C          -5.32233600036508    2.08784527708049    0.82359985832749
S          -6.04838181686683    2.97365610712234    2.13259374378678
C          -6.71920378746599    4.14955596535014    1.04503184798194
C          -6.41044001609271    3.85563658555336   -0.29039936696926
C          -5.61804038886347    2.71322879720320   -0.40289509525021
O          -5.14608140170212    2.19338151036268   -1.57511727515973
S          -4.29794953681101    3.24400926483418   -2.55908434538277
C          -5.69041879547021    4.08862672506080   -3.41487407710998
C          -6.96729330983304    4.01299546062372   -2.59231715579480
O          -6.86648707769852    4.62610901661277   -1.31890242560397
C          -7.48876956453479    5.20834373898649    1.58018381712473
C          -8.11057348942230    6.16758121326359    0.84455737806399
C          -8.91786102429187    7.20755001563624    1.36173494712026
S          -9.68649178519731    8.31244534330695    0.26217060358644
C         -10.46952170168915    9.18675137072969    1.54416554324027
C         -10.11377683313984    8.64949902744680    2.77946578348301
C          -9.25785205643101    7.53432888593959    2.67157779715795
O          -8.78892018055025    6.81804563340583    3.74106560880735
S          -9.93083010707364    6.26867327536884    4.82986371746689
C         -10.11800300771895    7.76060504364342    5.88458142080308
C          -9.77879068789391    9.01896733054070    5.09918884333330
O         -10.57602365806775    9.19428472618473    3.94244232007780
C         -11.33123693810022   10.26242377421685    1.21591451105703
C         -12.04427795871979   10.98930872645351    2.11224995805361
C         -12.94234053162270   12.03478973201222    1.78380157796409
S         -13.67099239986731   12.96462573301976    3.06202802731085
C         -14.58222782180651   13.93452337571876    1.94240759634977
C         -14.30866740389014   13.55090955893419    0.63728357768529
C         -13.39069372881740   12.48518479134213    0.54562681379222
O         -12.91546818645877   11.94010773512302   -0.60614951988039
S         -13.93469435140344   11.87329954843690   -1.92606791930454
C         -14.15645321580834   13.65921791450786   -2.10502003667631
S         -15.11806377560197   14.34052619099866   -0.71463808562213
C         -15.46248373897130   14.96460944359922    2.35434643382286
C         -15.69227823175139   15.30353045374275    3.64287682889788
C         -16.57799885737533   16.33885584402050    4.05259950957614
O         -17.27056104002352   17.06173439216137    3.13383747819759
C         -18.01445697491274   17.94944152959462    3.80437799857058
C         -17.82609813845695   17.82780102302863    5.14951280011895
C         -16.89274499696912   16.78263683402409    5.32823252424313
C         -16.35882216752569   16.26715731561827    6.61753598892546
H          -4.79413587149748   -0.30531768992434    6.08896484639266
H          -2.15309765868889   -3.39582086791862    3.16140090080709
H          -4.13224912296302   -2.09975797626694    8.14254434497749
H          -4.19334310129362    0.61735325272932   -0.10557134862071
H          -5.85225224261825    3.62014790812168   -4.38488729244756
H          -5.36983648250940    5.12044135791129   -3.54615124065985
H          -7.75402870665690    4.56898446127454   -3.11322242900319
H          -7.29036054965504    2.97045268218214   -2.48838848283466
H          -7.57672675636596    5.21417578520789    2.65660622289986
H          -8.01223480411073    6.15213431097047   -0.23026661692292
H          -9.46215490400243    7.67790659807264    6.75064333096959
H         -11.15933688979340    7.76368087360100    6.20112922478507
H          -9.98450494682086    9.89306327699885    5.72647082765164
H          -8.71460040854047    9.02482892017659    4.83530588128416
H         -11.41213868144474   10.48347674631408    0.16187213625850
H         -11.94765204033616   10.77415966327905    3.16563057821842
H         -13.18032437205644   14.13833335358052   -2.15369292764532
H         -14.73225457493834   13.84216688820970   -3.00714903649427
H         -15.97075946136430   15.49640325918409    1.56089409855448
H         -15.18743295853377   14.77201055574629    4.43743333394901
H         -18.63187150530798   18.60860606131821    3.22635236169886
H         -18.29301759486383   18.40893089244143    5.91841114808067
H         -16.78056633911487   16.82719642137079    7.44766640772911
H         -15.27378949678407   16.35964623069418    6.64803698333677
H         -16.60927834149593   15.21434245280002    6.74309411232458
