105
 SCF done       -190.164719506309          0.000340888379
C          -2.80674365937934   -1.23116613017231   -1.19409843528662
C          -3.22416195857995   -2.14734080200620   -2.12263300328233
C          -2.55352135980420   -3.35790945008282   -2.39690639030510
N          -2.05094569528151   -4.35526755314650   -2.66163088511192
C          -4.35444381754145   -1.99757807349134   -2.95439765538200
N          -5.24680202655404   -1.93954245175003   -3.67435759410838
C          -1.60020235168846   -1.32761587861039   -0.38410582230116
C          -1.44232899481640   -0.12597116024288    0.34977020148143
C          -0.38894125600292    0.08570290088772    1.20635795626474
C           0.55462827639702   -0.93696558551984    1.34615568386482
C           0.38696307399509   -2.13591551658816    0.61164712221306
C          -0.67767506356666   -2.35018175970498   -0.25402255396724
S           1.66303109249820   -3.26890533164829    0.93737559904730
C           2.39571789789991   -2.13259928929975    2.03860138318569
C           1.72098208643136   -0.96445709835705    2.15853878531378
Br          3.98094929500296   -2.59637218103571    2.92616551271511
C          -2.55696117614101    0.79230061530275    0.04438199469240
O          -2.73277938057733    1.89495115810347    0.51143763695504
C          -3.43801366669371    0.04500189333477   -0.89602469046655
C          -4.68685660601840    0.43629542553955   -1.25287502534481
C          -5.25966396224972    1.73020687454785   -1.00341993189034
C          -4.59722083907625    2.94204743781471   -1.27000398164070
N          -5.15364014272605    4.10756819642324   -1.07238264008530
C          -6.40703941404792    4.14122282175793   -0.61622674765637
N          -7.12780925633925    3.05268986075353   -0.34169653410262
C          -6.57293667730583    1.88290582094627   -0.52894811082265
C          -7.02625329106707    5.43731469187603   -0.42342947347961
C          -8.42121535093522    5.60098771288324   -0.46440994887741
C          -9.03797959557263    6.88468785043109   -0.21931309894576
N         -10.37060636239205    6.95108103323280   -0.07523943974954
C         -11.10237789619806    5.88393501503203   -0.27358106240637
C         -10.49505316918593    4.66885157896868   -0.74397013767079
N          -9.19630109608312    4.55637694532884   -0.80391886531646
C         -11.31362920832279    3.58895246741676   -1.15921612774936
N         -12.02057452645519    2.74602783308834   -1.47886303007622
C         -12.49901086448192    5.96792386468467   -0.06046651375174
N         -13.63436921322637    6.02255664788102    0.08667599838513
C          -8.28002643659003    8.06748635724768   -0.05047781766019
C          -6.88423907357340    7.89528626221329   -0.02643761439017
C          -6.26392483820817    6.59596275895753   -0.20263396972410
N          -4.93507092020866    6.66951561558511   -0.12481320190995
S          -4.50722670876000    8.19235918429551    0.10899003237132
N          -5.96703252507468    8.85425634839681    0.14350017010776
C          -8.92247137847698    9.35375839215458    0.12470291521928
C         -10.13519104557024    9.63193161604318   -0.52731539290452
C         -10.77871493858321   10.81577699881888   -0.27971329212893
C         -10.22819052556875   11.76344564990931    0.60216629996634
C          -9.00357490683763   11.51790311861620    1.21426551316817
C          -8.36137879254283   10.32375527295248    0.96958578050443
C         -11.14559613766370   12.86949025777493    0.71310849626294
C         -12.26994981520095   12.60769768686833   -0.09663425624291
C         -12.08348908319411   11.31607011915239   -0.85955512894192
C         -11.84122909818571   11.57472580271501   -2.36596441151415
C         -12.98555494227912   12.24503618880903   -3.11443841484175
C         -13.23255917358331   10.32215515884575   -0.63216796015961
C         -13.37019887052281    9.91168846729334    0.82909781523980
C         -13.33717806556102   13.46839413108652   -0.08913159396433
C         -13.29810269481207   14.63997197229215    0.69257013707813
C         -12.15093226124428   14.89979730811913    1.46330996896944
C         -11.08823970352829   14.02520580969179    1.48478894694181
C         -14.43344678914935   15.51318778654465    0.66365702926604
C         -14.59897632494468   16.66998675044471    1.35956937609627
C         -15.75471666950492   17.46556299031580    1.26109005979505
C         -15.96146954660366   18.62689372719385    1.95815658432035
C         -17.10398214995190   19.46611626530570    1.89275837606693
C         -17.04666386348447   20.55729662599591    2.69971610092125
C         -15.85286071536073   20.65078288987015    3.45841029626643
S         -14.80227456247057   19.29492977005498    3.09912320162896
C         -15.50482529716850   21.62647493606340    4.36266674355465
C         -16.26999258024637   22.76691048903935    4.73737564207016
C         -15.67683003646083   23.55782727271909    5.65811251523512
C         -14.38571406213643   23.10209846083064    6.08788012660300
S         -13.98646544515683   21.60187780020991    5.23541283607057
C         -13.57013913038888   23.67394463763019    6.98395327018669
H          -0.29664999609241    1.01233733616619    1.75086806100766
H          -0.76468570270354   -3.28232643648005   -0.78671153472828
H           2.03109092341908   -0.15493972939668    2.79369658880913
H          -5.34161059587401   -0.27111531596494   -1.74759900946668
H          -3.60814062453585    2.95243578142402   -1.70684978851274
H          -7.17303229310971    1.02294805266694   -0.25902254869446
H         -10.54718113913292    8.91927002316800   -1.22307898391106
H          -8.56901976968465   12.24304505749512    1.88574067174424
H          -7.42431399939094   10.10733574669872    1.45670971187617
H         -11.62392997207023   10.61251889938107   -2.83486182460207
H         -10.94743238797982   12.19754811605205   -2.46093896581766
H         -13.90134334819609   11.66511445401317   -3.03867464108008
H         -12.72611615822477   12.32814995865941   -4.16779733006127
H         -13.16539734777289   13.24615637749613   -2.73220495845511
H         -13.05586587734520    9.43152365586499   -1.23815561452004
H         -14.16769608584110   10.77449114450936   -0.96460891187169
H         -12.46441329101987    9.42072993877288    1.17692139239891
H         -14.19737340780277    9.21544542502455    0.94210270735632
H         -13.55659055359199   10.78050883450486    1.45751094967506
H         -14.22615596849773   13.25708897642059   -0.66491526571288
H         -12.10525662486790   15.79701108865446    2.06037048774681
H         -10.22404220068749   14.23003939043620    2.09898802731693
H         -15.24252452058036   15.20265431249558    0.01245892850494
H         -13.82873649130564   17.02411942993688    2.03104127391978
H         -16.54146295792114   17.14445606361268    0.59038884312389
H         -17.93112962829272   19.22935155560501    1.24668924521330
H         -17.82436293570788   21.29597712066084    2.77404972457784
H         -17.23709373713181   22.95801016595940    4.30727743858180
H         -16.10180172047790   24.45989306326397    6.06109466242976
H         -13.85295990500681   24.58578739939961    7.47959855284956
H         -12.61738641767955   23.24596284886928    7.23616675649158
