96
 SCF done       -194.600016175567          0.000553002295
C         -10.20139147494275    3.69004940379482   -3.66763379886936
C         -10.70664949423419    2.48837016811001   -3.21120644179113
C         -12.07710522736868    2.18528900982864   -3.15732248660244
N         -13.18683497306410    1.90183676266618   -3.05345147505044
C          -9.92811835251257    1.46629387059998   -2.64509421438936
N          -9.36154850522604    0.60067126648615   -2.14263966460287
C         -11.00856603834548    4.81290339693759   -4.14088516427669
C         -10.15569423104559    5.92834327145566   -4.31774378822256
C         -10.61113355420268    7.14728409104490   -4.75096923623064
C         -11.98087086061461    7.27450433451856   -5.01660505495462
C         -12.82453526788525    6.15676194871003   -4.83209369168630
C         -12.35934493752546    4.91864282103122   -4.39771617181046
S         -14.47689319644840    6.53255447486128   -5.21641355283360
C         -14.01642402546745    8.16628003437657   -5.61636302465118
C         -12.69453548891450    8.41857674484499   -5.46867078454052
Br        -15.32400911375719    9.38401667602509   -6.18910472164206
C          -8.77723735171558    5.54730749681429   -3.94347758912087
O          -7.79882398151885    6.26919293355717   -3.97227708256683
C          -8.84200694105634    4.11969778996117   -3.58899914167603
C          -7.73544924036045    3.32541014708535   -3.32157959856931
C          -6.45229375734791    3.74524866671852   -2.94147125285192
C          -6.12866072209519    4.90193523630778   -2.21000282559703
O          -4.85203858729502    5.38290590200954   -2.15172747416736
C          -3.88872225951540    4.60168260196263   -2.71639619187013
C          -4.19102053258327    3.32106879451860   -3.26362394462220
C          -3.08918638530859    2.66986203187941   -3.71497192645500
S          -1.66715762425772    3.61514855897240   -3.48080519424746
C          -2.56555360290924    4.89919626724253   -2.76735998448988
O          -5.46657959502306    2.85834305646778   -3.34160142428579
C          -7.04950750973307    5.64831371346715   -1.45733349291584
C          -8.24901275988744    5.14534111554885   -0.99524646066237
C          -9.32472052953709    5.89425695208250   -0.55986341631930
C         -10.56088434629600    5.32333800655366   -0.26496829964773
C         -11.78277497839033    5.98513816469542   -0.06211291134322
C         -12.85517791768263    5.14409497890073    0.09918023773233
C         -12.51825001012508    3.78327927496132    0.04800348927633
S         -10.80271499466892    3.59311810703056   -0.20830788423567
C         -13.35642155546336    2.67713214257420    0.17868639049621
C         -14.74531504782696    2.68483698868006    0.40650336236108
C         -15.28475926909041    1.43376515240910    0.51319350610878
C         -14.34148949086038    0.39615888359826    0.35949973490642
S         -12.75124968181143    1.04686760259199    0.08140788414202
C         -14.62900267794030   -0.95729560830685    0.41161817014585
C         -13.71023577115436   -1.97030156326776    0.13334879789739
C         -14.03533978141181   -3.34156059306772    0.12768819875306
O         -13.16904951820682   -4.28547544402596   -0.34447647427517
C         -11.95622467155052   -3.83275261471754   -0.77260040618256
C         -11.59558809909913   -2.45830567630266   -0.69467531085852
C         -10.34451088986617   -2.20733875965248   -1.15468296397228
S          -9.58944158130994   -3.65596004994866   -1.69378790761608
C         -10.96773367520073   -4.60597322455904   -1.29238367027024
O         -12.46363824634570   -1.52254533322754   -0.20634909395973
C         -15.27171281173620   -3.83054073485495    0.57927799959841
C         -15.69314148684562   -5.12979304497971    0.42466978896208
C         -16.91593170483565   -5.64575585960159    0.87682280232997
C         -18.04164825144215   -5.01480169127237    1.36048245004895
C         -18.50802586233680   -3.65497095001013    1.33578157461859
C         -18.23560237673767   -2.70148961159034    0.37809132453251
C         -18.61097196578055   -1.35120639607702    0.47125515421117
N         -18.79790370779262   -0.21867114017326    0.53981585717004
C         -17.53677037675325   -2.98252287123755   -0.81163134175821
N         -17.00575087248860   -3.16921930048033   -1.81247482552470
C         -19.52019306541907   -3.51494592258067    2.38045056966793
C         -19.83261911934034   -4.80358231051571    2.88021415042282
C         -18.97153140774241   -5.80167555288484    2.20989456130581
O         -18.98665198018564   -7.00383598171473    2.35471873921919
C         -20.79072245496117   -5.00928633422318    3.84116781136391
C         -21.46364138128555   -3.88853122520650    4.34237705721028
C         -21.13662334763377   -2.60583200966561    3.84434981128882
C         -20.17476252497132   -2.39857268574010    2.86197139265598
S         -22.08284687511322   -1.36380433879285    4.60719086731349
C         -22.89727960407113   -2.56920412684476    5.56874075355023
C         -22.48213282873621   -3.83623078663716    5.33335052318147
Br        -24.21487103268478   -2.03930807483926    6.79442616382932
H          -9.93683939935512    7.97936237186728   -4.87917395895716
H         -13.04173266728506    4.09320193704442   -4.28251172941364
H         -12.23897255634730    9.37035596512056   -5.67269010396139
H          -7.80236718603782    2.26647066632545   -3.54435649398305
H          -3.03438619493536    1.70069617378500   -4.16433843175682
H          -2.07618801362216    5.78757249776825   -2.42720075183048
H          -6.75787438223915    6.66086654627798   -1.21884339044590
H          -8.39548231110823    4.07263132424474   -1.04607896322252
H          -9.25572486772468    6.97309204568879   -0.54387299441606
H         -11.84977735002043    7.05861449303902   -0.05938949198250
H         -13.86562954762125    5.47923804715901    0.24653804494343
H         -15.31204383164457    3.59449916562184    0.48485526698946
H         -16.32819828010338    1.22783346775072    0.67641796631762
H         -15.65012693172267   -1.21833366263748    0.62780150997640
H          -9.84431987385187   -1.26198139527383   -1.23289534636647
H         -10.97726629751880   -5.66247635726395   -1.45970997184559
H         -15.89174947680065   -3.14056121758314    1.12476706329091
H         -15.01201636945276   -5.82731906002964   -0.04153666518622
H         -16.97893885571060   -6.72848200367908    0.93609478358683
H         -21.01766907772008   -6.00238800022805    4.19565929227445
H         -19.95975979992304   -1.40221068545357    2.51206455778755
H         -22.87602336526276   -4.70010134608521    5.83695204731302
