111
 SCF done       -198.862099293020          0.000803210627
C          -3.01051301367976   -1.35571003250326   -0.32654912452554
C          -1.87110611385418   -1.21810415498720    0.42126966019511
C          -0.93998414403437   -2.25560340001344    0.64149492768517
N          -0.14494154257051   -3.05295572189943    0.86485596414135
C          -1.44176487725348   -0.04709405179881    1.08177507800329
N          -1.00035361342403    0.85220574554705    1.64507024546288
C          -3.44348624664817   -2.58581597404100   -0.97413424148004
C          -4.72285279588763   -2.37342079451602   -1.53983363977319
C          -5.40328637281210   -3.34958960542273   -2.22646281125247
C          -4.79020071733273   -4.59887446318807   -2.36190068612987
C          -3.50740639010187   -4.80139703296380   -1.79847918124211
C          -2.82007804881926   -3.81377115355209   -1.10507428167720
S          -2.92927745452472   -6.41411743098665   -2.09069747471751
C          -4.40012530460598   -6.78983587415092   -2.94863177722566
C          -5.27907579771796   -5.76209360834087   -3.01723945568851
Br         -4.63451733036617   -8.50168721044036   -3.67788590579300
C          -5.16036570035767   -0.98711170286769   -1.27967779450347
O          -6.21071877581335   -0.50196595543414   -1.63881642242483
C          -4.03167219985651   -0.34141802222213   -0.56041281027729
C          -3.85073933061733    0.98339545324533   -0.30700799874994
C          -4.73879626866647    2.10570353141407   -0.40776016949202
C          -4.13156234420811    3.37058030250756   -0.53879148399971
C          -4.90165022505001    4.50007842023524   -0.62635595848458
C          -6.30166986769823    4.40422583672305   -0.50005237340128
C          -6.91245593644440    3.16699985425794   -0.33475326671638
C          -6.13565283740211    2.02783946637456   -0.30282642583739
C          -6.85621538327092    5.73615206723009   -0.53278605153809
C          -5.80189579896271    6.65838740144931   -0.67917148384142
C          -4.46738247250339    5.94483606568319   -0.75959074852004
C          -3.53779409918057    6.27322364101897    0.42863673248763
C          -3.02403584350777    7.70442283488850    0.50986175768432
C          -3.84992499439377    6.25277270310210   -2.14048144590209
C          -2.51494936681418    5.58424809454508   -2.44057034531494
C          -6.06734781962306    7.99954309164331   -0.78602566343062
C          -7.39178412501418    8.46609564536645   -0.69615737398203
C          -8.42716494102311    7.52916439164020   -0.53503409615813
C          -8.17259839432644    6.17715757335033   -0.46025137463592
C          -7.71446633869741    9.86363051270455   -0.76884732622243
C          -6.80838971872298   10.87577472583240   -0.79896693227166
C          -7.11301674890738   12.24711297931189   -0.87441654859968
C          -6.13685408759840   13.21100454120477   -0.90133564438651
C          -6.28139864264765   14.61799681541041   -0.98525710110374
C          -5.10471490943616   15.30461647452928   -0.99891784149071
C          -3.95972279377672   14.47833028077146   -0.92432731734866
S          -4.42693428209532   12.79958979678213   -0.83712062832127
C          -2.62401868478351   14.82945624616086   -0.91668197047004
C          -2.02449684953763   16.10470603158597   -0.99213039641899
C          -0.66376461985967   16.07359366296133   -0.96446979977347
C          -0.09883967614798   14.77165243668955   -0.86280970408313
S          -1.39095794679970   13.59016076959457   -0.79921008376322
C           1.24447834894608   14.49699282151112   -0.85408925834750
C           1.89682945702536   13.24077891412989   -0.76890954778687
C           3.29712792444689   13.14442073351515   -0.95340696780524
N           3.94977326336288   12.01356103824381   -0.94658073211127
C           3.25582715506638   10.89384678079881   -0.70188971880292
N           1.93711929462750   10.87218647589385   -0.46064342425393
C           1.27944933656230   11.99938492250297   -0.50257357975728
C           3.96492811202320    9.65028946973714   -0.78282192345220
C           3.50203226911541    8.41478910570587   -0.46620270840854
C           2.30965147265366    7.98513227467025    0.23916237671442
C           1.70617168823545    8.63480494980704    1.27963229434304
C           0.58662799660676    8.13582287664558    1.97146799244271
N          -0.34080872287890    7.77803384089560    2.54703531500521
C           2.19028844356082    9.83621339313938    1.84286917281292
N           2.57524206415088   10.75548426951451    2.41202114265607
C           2.01535670215858    6.62700267418467   -0.20290297728775
C           3.11681922155528    6.14387327210153   -0.95397730704619
C           4.14238128349023    7.20462504293936   -1.05690077029952
O           5.23593041157851    7.12954435864397   -1.56458846068920
C           3.13583615208847    4.88553524446652   -1.50561101595483
C           2.00974502500045    4.07565063857392   -1.32347562578208
C           0.91766706415088    4.56739497104197   -0.56986654976164
C           0.90256647262420    5.83379227111830    0.00182280485442
S          -0.37326484227084    3.40935870788822   -0.49357725218084
C           0.54217537634901    2.31003764984929   -1.48561453156071
C           1.76480502614445    2.77158297231445   -1.83662113059094
Br         -0.22227026706449    0.67928887887527   -2.01372166809951
H          -6.37799154937065   -3.15440262352331   -2.64565002884965
H          -1.84185043751340   -4.01540993375056   -0.70238977776404
H          -6.23263249240080   -5.81952059113400   -3.50972135484252
H          -2.84987726058375    1.26924055505622   -0.00318480398544
H          -3.05497814985258    3.42700993724701   -0.57032920491965
H          -7.98360359722236    3.09593471159827   -0.22210529758269
H          -6.60650024636328    1.07013914548387   -0.16456587364612
H          -2.68750793810842    5.59019291611866    0.38656875290503
H          -4.08558606739585    6.04558262266852    1.34660111754555
H          -2.50689606800859    7.99837187144219   -0.40037847372910
H          -2.32175169665239    7.78336398771581    1.33737812409597
H          -3.83519598476991    8.40180629683844    0.69748089464780
H          -3.72950530052376    7.33416942218581   -2.22228402920336
H          -4.57534960176447    5.94890207988788   -2.90031822605573
H          -1.76727251333758    5.84247107959763   -1.69567719195852
H          -2.15418805363862    5.92218958720389   -3.41017405929095
H          -2.61930116289275    4.50389206946476   -2.48056181780097
H          -5.26619086055988    8.69872715246898   -0.95697375028366
H          -9.44539090935636    7.88569630354140   -0.47195839138192
H          -8.98229968317152    5.47141452975377   -0.35132323801567
H          -8.76860901951904   10.11185107453478   -0.78539392686189
H          -5.75245840482556   10.64413271600786   -0.75769212826744
H          -8.14719118167272   12.56079907977823   -0.91696197286521
H          -7.25303624345697   15.07751789546283   -1.03383909732618
H          -5.02708473037038   16.37551351569397   -1.05912270628575
H          -2.60866388702094   17.00440556774423   -1.06838963498319
H          -0.03669379677923   16.94624353196207   -1.01456989360334
H           1.89919288619033   15.35544337160782   -0.94975424102750
H           3.88920480582779   14.03465830290535   -1.13213664097443
H           0.22201318952521   11.91912898798316   -0.29157174849116
H           4.93884594449831    9.70662910212364   -1.25367160736107
H           3.98696577367284    4.53979074312017   -2.07096743363997
H           0.04689745873156    6.17405631917139    0.56165883702697
H           2.46312283808862    2.22346891927619   -2.44254832877580
