96
 SCF done       -176.320340521181          0.000844215814
C          -3.43540675646637   -0.99181965756802   -1.92219415860267
C          -2.27690005370850   -1.01364383444717   -1.18544477438727
C          -1.75049551260969   -2.16892773362415   -0.57438681736425
N          -1.27399064912697   -3.07616903782561   -0.05572428572672
C          -1.44346761687834    0.10100489389858   -0.96566328990263
N          -0.71636242065199    0.96365085632435   -0.74826124418054
C          -4.30788342391132   -2.13303986710095   -2.17585385974679
C          -5.33216944051768   -1.74099822801669   -3.07355710057646
C          -6.31721807832195   -2.59552694017896   -3.50015306335229
C          -6.31322811973196   -3.89708892339285   -2.98626940619868
C          -5.29032345471905   -4.28180585816194   -2.08758940238404
C          -4.27783372867641   -3.42344617198460   -1.67746231368312
S          -5.47973236253542   -5.93257583715211   -1.57390291784072
C          -6.91376495115162   -6.07659081053095   -2.55575591380829
C          -7.23397844748433   -4.95136097673301   -3.23674497470360
Br         -7.85316013258254   -7.69999385728768   -2.58710773230758
C          -5.13150872868259   -0.32747385428635   -3.44323794768315
O          -5.61243463624252    0.25612716500383   -4.38715054156000
C          -4.04072480987388    0.16015905447589   -2.55944035775662
C          -3.69841559806969    1.46838849144250   -2.43563749672314
C          -4.56307587980497    2.56644544438330   -2.74771307122013
C          -4.06038217570878    3.82153878680173   -3.09694335529389
C          -4.84504818092556    4.99522335574267   -3.18117842152922
N          -4.13205560318485    6.10490754131975   -3.52739391897839
C          -2.89897957617022    5.84625679173137   -3.71546575047983
S          -2.41088506416508    4.18580845127052   -3.48930085612752
C          -6.22955342320573    4.96318461451386   -2.91631502490555
C          -6.74190380826132    3.69185490712881   -2.64056787841184
C          -5.95638891517315    2.52155707357171   -2.53394497756738
N          -6.64347567298662    1.42406988185277   -2.11117973710647
C          -7.88097198138238    1.67249104122652   -1.93894642996598
S          -8.39326700573540    3.30803629815549   -2.24693478704991
C          -7.07283199982708    6.12966173989609   -2.90424884207919
C          -6.59699614283729    7.38029380509930   -2.74464772877049
C          -7.26948255101893    8.64466925785961   -2.85088540498228
C          -8.35910245935784    8.95122668381992   -3.57542117489310
C          -9.21543861897106    7.93274884150848   -4.25588976785729
C          -8.73089490926980   10.40177654269144   -3.83373764079470
N          -7.62530320842804   11.33584542156266   -3.82943652632181
C          -6.46190204959288   11.11270201659451   -4.50040889002876
C          -6.25123260573417   10.07384530795813   -5.34444547760918
C          -4.99640382639662    9.67055407792417   -5.85122639068182
C          -4.79319693679557    8.38005266548251   -6.26046740999043
C          -3.59648581602066    7.73410228894025   -6.65656466910348
C          -3.70788112136723    6.38493162817588   -6.81257840526054
C          -5.00304174841916    5.88044086998414   -6.55418635589962
S          -6.09221783693155    7.19028801579454   -6.17772228931073
C          -5.45721714443867    4.58023000000783   -6.50889840455198
C          -4.78055277173146    3.37604461957416   -6.80436169472636
C          -5.54715010279538    2.26611322518660   -6.63758037779554
C          -6.87643197833902    2.51663602347646   -6.19243740465130
S          -7.10755775317679    4.24345914081377   -6.01737626233610
C          -7.76476550090121    1.53560257591616   -5.85450482151154
C          -9.04311071599188    1.62034889448149   -5.22992398266285
C          -9.92180251063479    2.71338763545262   -5.28960892543289
O          -9.57246491934448    3.63926557977464   -6.21830589063196
C         -10.28596198638083    4.83100227117661   -6.44684154798196
C         -11.08831328088604    2.76720236615666   -4.46393911000687
O         -11.83212569419061    3.91352720359614   -4.53093245285679
C         -12.97066800491340    4.03042982112720   -3.71386818077210
C         -11.42903950270658    1.71985514809665   -3.63813932713353
C         -10.63344520920871    0.56842596010095   -3.63701799106726
C          -9.44742927555057    0.50473530634658   -4.44558265162472
N          -8.81932724524229   -0.65706443438693   -4.31848374867057
S          -9.64143881898914   -1.58239797376576   -3.27613839461497
N         -10.83350731130143   -0.54576625201095   -2.93578254131622
H          -7.07471842227472   -2.25947931684317   -4.19011672796391
H          -3.51941262307196   -3.76534617518902   -0.99296595893595
H          -8.08447649566201   -4.86242010993286   -3.88761877881826
H          -2.74346467796348    1.74468108394940   -2.00466473087430
H          -2.17701515802696    6.58663322974324   -3.99860825830462
H          -8.59058342055800    0.94574766832134   -1.59473841190437
H          -8.13091621256305    5.92223703361033   -2.95710506142255
H          -5.53488835697134    7.47770808146808   -2.56271857328538
H          -6.71908235540576    9.46549582534074   -2.40736633686377
H          -9.85566438765078    7.42989254866496   -3.53109624244138
H          -8.58904114675575    7.17916107939164   -4.73329870236830
H          -9.85370788020535    8.39035125299788   -5.00855611847757
H          -9.45512851975881   10.73951165855648   -3.08606467737236
H          -9.22366302322782   10.45504229851820   -4.81298295903678
H          -7.60206395624927   12.01708823938965   -3.09005413387089
H          -5.66991991296582   11.81666619058394   -4.28283277798667
H          -7.06413104482095    9.39352269724501   -5.54499871965886
H          -4.15473916554366   10.34828441425361   -5.81561090643235
H          -2.68223516766538    8.28656828092450   -6.79087510691772
H          -2.89394900557873    5.73522462931481   -7.08402462475687
H          -3.75792047568699    3.36585683549087   -7.13979571361744
H          -5.20668410888920    1.25881491093262   -6.79269821716338
H          -7.38225869882018    0.52668786521984   -5.92516967582708
H         -10.33173258439556    5.45831992304513   -5.55590814414310
H         -11.29733562910368    4.62979523317706   -6.80593481411956
H          -9.71670217331688    5.34622710990851   -7.22075492083476
H         -13.71649381245355    3.26447566194492   -3.94787500959704
H         -13.38353525933580    5.01411346809491   -3.93435437109585
H         -12.71028888030654    3.97487822332033   -2.65222099530880
H         -12.29599967846353    1.74450082342320   -3.00220783954528
