108
 SCF done       -214.123820405748          0.000485772413
C          -7.86594873289405   -1.47644318443759   -0.82851584914734
C          -7.38070870611498   -2.70694505227289   -0.47578663005949
C          -8.04699690852022   -3.59370354831235    0.39690163523008
N          -8.54898129331716   -4.35357197492408    1.09509936074278
C          -6.12550821961401   -3.22470175393993   -0.86570790554170
N          -5.10281622055530   -3.69132288632864   -1.09613264358008
C          -9.06835857055093   -0.84963447815387   -0.29884276720227
C          -9.09652655800151    0.50278310878716   -0.71856618495925
C         -10.10289426248399    1.36731601562622   -0.36073114259627
C         -11.13271360756887    0.87260478821442    0.44566416978654
C         -11.09998745035079   -0.48332929735616    0.85381967483016
C         -10.08115088859873   -1.35636636227884    0.49503385882160
S         -12.47248428441227   -0.88761535752789    1.83847419117503
C         -13.06305087795364    0.74673374802585    1.69349079390473
C         -12.27462123297466    1.55547656321566    0.94575045498616
Br        -14.66323448567067    1.23057556088203    2.54200862831958
C          -7.92129647393329    0.79028099840826   -1.56699528577561
O          -7.64625053939011    1.85534508581822   -2.06698272393320
C          -7.21093815389076   -0.51469578586046   -1.70220390736247
C          -6.23894594145492   -0.82751844318090   -2.60321723824766
C          -5.49729895764199    0.03715391459547   -3.44181345057712
O          -5.45835773524656    1.38660644653288   -3.30532109343318
C          -4.64711075763194   -0.30859100761425   -4.48122718341188
C          -4.13318028094724   -1.43916130054561   -5.26940719009969
O          -4.36783662894119   -2.61480546738615   -5.21257679305661
N          -3.26788989910014   -0.83009609755913   -6.17741096296337
C          -3.17675358190062    0.55416172993335   -6.07524001254573
O          -2.48167361491293    1.25584457816244   -6.76709362219047
C          -4.08642854609216    0.88614283661148   -4.97720323061124
C          -4.61816899852321    1.92080396395603   -4.21410038989312
C          -4.42494299303032    3.32745964352583   -4.23697915411447
C          -3.56568692088862    3.91535559671822   -5.10061962428030
C          -3.27456664519643    5.32293578176869   -5.13338019849152
C          -3.47899069840302    6.08655052797057   -4.01167334555946
S          -3.01199678973290    7.72087628044243   -4.15100760783698
C          -2.53481835039728    7.43804536463709   -5.79756487844819
C          -2.72172229568032    6.11324312680191   -6.22028491355667
C          -2.42081820892245    5.79704294846252   -7.57049177225354
C          -2.62681845154842    4.38900524780048   -8.06314751699776
C          -4.10826022277498    4.07381711906528   -8.27699626460640
C          -1.96340402727194    6.78233272620158   -8.44115754335643
C          -1.78923019508521    6.48247367335092   -9.90837180213615
C          -0.35040409971459    6.08850646670830  -10.24701982928462
C          -1.66858326597646    8.08625612789385   -7.96935604541773
C          -1.02773313749126    9.22690790367897   -8.59684622979796
C          -0.95023344434382   10.29315689975359   -7.74065558446390
S          -1.61296061712125   10.02657807683821   -6.18794422795458
C          -1.98801734558418    8.39169075115432   -6.63802598113740
C          -0.44473115221979    9.32921647364693   -9.91190204143444
C           0.63304834867724   10.09512547995603  -10.18713843491718
C           1.20564810741093   10.20844205547614  -11.48147913169044
S           2.61188333994387   11.20987799179968  -11.74496325659203
C           2.69985678861841   10.84447763266959  -13.45245328259745
C           1.67386425726721    9.96612942746852  -13.76196578279707
C           0.84607456279275    9.62049766463510  -12.67910301972886
S          -0.41001354443322    8.54584540829615  -13.23294405717839
C           0.25894606262667    8.62737483445657  -14.88148435044259
S          -0.33226949309230    7.84958740932849  -16.17047756126603
O           1.34435261570092    9.40355265475061  -14.94244004058265
C           3.62979962023524   11.46780836001549  -14.31283153680491
C           3.64916915773334   11.25056616299069  -15.65469757999043
C           4.47479890878982   11.96847073449972  -16.54438511037307
C           4.35494891237427   11.99826742243903  -17.90209685288587
C           3.32495503121123   11.49375841083315  -18.78630138123971
C           1.99096253234535   11.33893017979122  -18.50785241832095
C           1.03992507369204   10.91189240205309  -19.46026469343605
N           0.22744973664745   10.56706101328733  -20.19347989063284
C           1.35806746925954   11.68937379490005  -17.29671804641792
N           0.76122657144833   11.99485848572536  -16.36431706640725
C           3.91725656551032   11.39542312407050  -20.11878231850834
C           5.18380561882857   12.03368910667687  -20.10446961072855
C           5.47705859202850   12.50257853026951  -18.73611176296622
O           6.44188568911588   13.12381771039049  -18.35293149587525
C           5.97003645777273   12.14079849993456  -21.22577556209411
C           5.49092534370682   11.58172577201474  -22.41498432850549
C           4.23339262332007   10.93184804827652  -22.41531397537292
C           3.43368944362947   10.83039396811692  -21.28331951873891
S           3.84094816792537   10.30068046108783  -23.98530493060204
C           5.34888916177307   10.91217522220555  -24.61242152288600
C           6.10908177149197   11.55583260164713  -23.69507671155375
Br          5.77658521726294   10.64419540088109  -26.41820754631282
H         -10.09551905806203    2.39357492093406   -0.69291274803795
H         -10.10208538742276   -2.38134116904071    0.82546782400735
H         -12.48877199127952    2.59089148891467    0.75357589529810
H          -5.97455087080067   -1.86810068768772   -2.74665940445023
H          -2.74592669725901   -1.35817234905330   -6.86241042697073
H          -5.02298653474604    3.88460592354003   -3.53204275527197
H          -3.04076501141068    3.27049299374963   -5.78510876832351
H          -3.84762266812598    5.74190282597054   -3.06572656406028
H          -2.19329964370906    3.68649379997474   -7.35515798478170
H          -2.09446599367242    4.22356351040980   -8.99585960810083
H          -4.22523559356038    3.03121272718786   -8.56094199604914
H          -4.51977516654193    4.69918246183701   -9.06666577205961
H          -4.68257077400071    4.25041409943438   -7.37071053758690
H          -2.08881289088311    7.35696253109387  -10.48371394061352
H          -2.46345096242640    5.68464979912838  -10.21400009473532
H           0.34687963330907    6.86275445422316   -9.93504502995219
H          -0.24483817152581    5.93648460961714  -11.31865832952751
H          -0.07944700955536    5.16691034031144   -9.73739768344237
H          -0.55618782249243   11.26406302273210   -7.96886338514131
H          -0.88606259980939    8.77417413350328  -10.72249837299619
H           1.13611980646467   10.64686715628033   -9.40650204911116
H           4.29186139732725   12.19805482751876  -13.86846818773315
H           2.98606939884763   10.50736933820466  -16.06942858085117
H           5.31200786497271   12.52115327578410  -16.13204235168590
H           6.92604439830785   12.63880214419005  -21.18668098469092
H           2.48665873742943   10.31907757357135  -21.33126370945252
H           7.06642616842121   11.99446219808057  -23.90978367484494
