112
 SCF done       -215.564017989406          0.000618165842
C          -8.49419846630671   -2.06775314350689   -0.68388950780580
C          -7.83164913088049   -3.00440002043696    0.06724508739796
C          -8.01004378474165   -4.39807450212015   -0.06624890522021
N          -8.10170343116721   -5.54069870215468   -0.12787255078401
C          -6.89809958094783   -2.73580356014140    1.08939620157882
N          -6.13921299561082   -2.60600047181901    1.94270150970779
C          -9.48575726948726   -2.36211725634373   -1.70959453236382
C          -9.98319552825196   -1.14252880872949   -2.22931843880649
C         -10.94753637430497   -1.09073740862310   -3.20638950392367
C         -11.43854743806219   -2.30170741990926   -3.70436525692824
C         -10.93166249284804   -3.51672756421690   -3.18357892219959
C          -9.96295813836612   -3.56887323099302   -2.19031000074549
S         -11.67247153204924   -4.89483643986485   -3.93992051722722
C         -12.63875280465610   -3.83509580569275   -4.93166266011978
C         -12.42028880818988   -2.51703970306842   -4.70962314787504
Br        -13.84455079977822   -4.56877518797061   -6.16634340323402
C          -9.30800871059010   -0.00775772017093   -1.56721612494642
O          -9.54677219480875    1.16611126138357   -1.74389581595121
C          -8.34439862883887   -0.62019102008760   -0.61373908483464
C          -7.54674036486226    0.04068378752680    0.26499644632589
C          -7.24585494442687    1.44718125644452    0.30941865515570
C          -7.05271356515691    2.18364233290865   -0.87277020350192
C          -6.66143472383167    3.50197789035221   -0.85885805342810
C          -6.46386826441778    4.17088246587896    0.34809289011646
C          -6.65419004633149    3.47768275570171    1.51856031966448
C          -7.02623910356342    2.12304467127731    1.51916281565261
N          -7.17228525748965    1.68451245168369    2.81946456567960
C          -7.65515869002139    0.40966442761203    3.27876416968634
C          -6.93639838990043    2.69748374878728    3.72086547295053
O          -6.99366576805590    2.58270608718033    4.91872494162847
C          -6.60742247098951    3.95919805030573    2.93394678323183
C          -7.70716070416511    5.00686072726168    3.20902319631122
C          -9.00907525836466    4.52849864404854    2.55938984449466
O          -9.58688582296716    3.48701934203918    2.76899457144793
N          -9.39549897670437    5.47404664934255    1.65480156622204
C         -10.54322044243190    5.32999611957607    0.80132185447824
C          -8.50472247863545    6.53796812752675    1.61676214657744
C          -8.54473598485795    7.67128650905406    0.83543847659820
C          -7.50752539962365    8.60954326500291    0.95705541259114
C          -6.48143318652605    8.38072816268933    1.88106325833052
C          -6.45881573264424    7.24368526533343    2.67214307012498
C          -7.47091363821592    6.31860982192455    2.53666663000418
C          -7.54928696290184    9.79841683930073    0.13545682716338
C          -6.48615453317819   10.58296880989594   -0.14407976249361
C          -6.48385633870086   11.77640848088667   -0.91553345570545
S          -4.99494416490384   12.26031770681571   -1.65770408141441
C          -5.67840837212063   13.68744450889538   -2.37646487567918
C          -7.05465723517757   13.76784545007764   -2.06410735015994
C          -7.49623733213275   12.70278268324866   -1.21403516043217
C          -8.82141685661389   12.69692532306460   -0.73338586172376
C          -9.69288043920453   13.65447359665176   -1.16408795289052
F         -10.96353223422226   13.64633985722799   -0.73095877468905
C          -9.28520390813018   14.63432544033410   -2.09094783805960
F         -10.18927779215948   15.52769836503056   -2.53827788992374
C          -7.99427525448017   14.70525885567519   -2.53125964174323
C          -4.82445287418822   14.53671811358757   -3.09991387680034
C          -5.08160227469594   15.85248957556450   -3.38748599649867
C          -4.26747238901436   16.70978934072730   -4.12884704229636
C          -4.62341889887080   18.03224064082917   -4.32036680484437
C          -3.96106461035129   19.06066864272899   -5.02416061532428
C          -4.61061441024890   20.26660758042828   -5.00241277199045
C          -5.81570690896058   20.24378243171995   -4.27665268560644
S          -6.11041545215282   18.65025467188301   -3.63195710837350
C          -6.75187318741744   21.22545471919116   -3.98246510069875
C          -6.83407275416359   22.59397606134850   -4.30050780570793
C          -7.93061113251358   23.21198159913228   -3.76814530257945
C          -8.76538017079887   22.36312897494151   -2.99562228130705
S          -8.10816988055701   20.74500463778459   -2.99564494214322
C          -9.92255366820992   22.71153270841248   -2.34129105905224
C         -10.72429752941573   21.87456343529285   -1.53861522336784
S         -12.25373924450285   22.48548485461838   -0.91449085081380
C         -12.65388852299657   21.03676799504057   -0.08187750326411
C         -11.66360326269801   20.09945574145853   -0.25701144676247
C         -10.58781246652517   20.57479985031513   -1.07230985244884
O          -9.63556648888007   19.62455193225116   -1.18358817963718
C         -10.08315557743607   18.56028794308483   -0.47178257639118
N          -9.24787812346260   17.42263658761080   -0.42782445918507
O          -9.61325265755476   16.49487305428841    0.27154765865826
O          -8.21999815064201   17.44040951537788   -1.07471652248366
C         -11.30104951318079   18.77534755938207    0.11689414018587
H         -11.30866902736779   -0.14419042325993   -3.57701188483312
H          -9.61292274926052   -4.51995002221123   -1.82604792828173
H         -12.92993190732036   -1.72808947145414   -5.23189798768154
H          -7.03514982126944   -0.55363302415081    1.00656878758453
H          -7.17679223714461    1.67941359868490   -1.81684427796273
H          -6.50557138178343    4.02366513838645   -1.79014587664554
H          -6.17024466133997    5.20947637180106    0.36189307382335
H          -6.88930742665104   -0.36632101995061    3.20767780356619
H          -8.53900676738723    0.11765937742439    2.70992301643853
H          -7.92593599957703    0.53623630260881    4.32774569574226
H          -5.63799456990962    4.36462400551863    3.23278273607260
H          -7.83116418992436    5.09517357056475    4.29297449882256
H         -11.02424272695229    4.38705718987855    1.05757892275514
H         -10.23828794787377    5.30452531297031   -0.24681583666628
H         -11.24389189622521    6.15224917156228    0.95774595372784
H          -9.34414572662736    7.83819392332147    0.13018546207602
H          -5.70158691127707    9.11576104129156    1.99936032040064
H          -5.66242256238847    7.09016719701055    3.38477823493799
H          -8.50574576809588   10.01592205496457   -0.31671309379162
H          -5.50504970363692   10.26689672364065    0.18744526529579
H          -9.15142518307872   11.96800424739421   -0.01384216570571
H          -7.73260502127611   15.47399966475939   -3.23654765822978
H          -3.86738346851137   14.11834182024491   -3.38762766515697
H          -5.97018548043818   16.29846514915477   -2.96512976874782
H          -3.35051700641169   16.34501747188358   -4.57087072101857
H          -3.02401505917893   18.88877629781988   -5.52478046619521
H          -4.24990574595674   21.15895131366127   -5.48310086316106
H          -6.09190875698883   23.08826031911088   -4.90235648805558
H          -8.16176512465890   24.25471201679006   -3.89787150571378
H         -10.26999336567079   23.72956461376254   -2.45225374337032
H         -13.56622683752489   20.96803242579236    0.47204557048150
H         -11.84286607264510   18.07832770057378    0.72168335972327
