97
 SCF done       -184.435452707759          0.000632888046
C         -14.58288852146529   -0.13885166891119   -1.26078887693752
C         -14.70734318176798    0.22414349110498    0.05556322363124
C         -15.92019832927628    0.20293062560939    0.77711249197446
N         -16.86263723604247    0.19483190637450    1.43217377091530
C         -13.66333946434209    0.67966835201180    0.88290475627833
N         -12.87150264780648    1.07514834269879    1.61651015053826
C         -15.67604042193249   -0.57478815114507   -2.11937261509335
C         -15.16036212889978   -0.87108480231396   -3.40512229126151
C         -15.95686616923974   -1.28086509553814   -4.44638822552971
C         -17.33340592473032   -1.38033643659302   -4.21767004686013
C         -17.84149316533367   -1.07603605696742   -2.93094124201126
C         -17.03164862959830   -0.68910472028720   -1.87042386474168
S         -19.56972883485106   -1.21603446082398   -2.87312263947311
C         -19.58639558776680   -1.66844270573459   -4.55697202563865
C         -18.36282510948814   -1.72785192895274   -5.13316552286440
Br        -21.22307040122141   -2.00232710089329   -5.39513097865029
C         -13.71138707395708   -0.59979387192854   -3.42606589108608
O         -12.99442400313048   -0.62178913050013   -4.40551486475917
C         -13.36406005917593   -0.16567554332556   -2.05032339538692
C         -12.13393919689565    0.26698785342245   -1.64642486121619
C         -10.91553110528022    0.11030054329644   -2.37068344315452
C          -9.87715216993329    1.01637724664068   -2.30055542396777
O          -8.68051441475698    0.80081005637329   -2.93760006495133
C          -8.62289350082060   -0.29148306129368   -3.75348040252795
C          -9.71559959377309   -1.19857186251881   -3.85840398170246
C          -9.48750260250747   -2.19524104219801   -4.74730406175644
S          -7.92422099453618   -2.04494257076916   -5.46094176716409
C          -7.58088294003215   -0.62097128240122   -4.55631859804915
O         -10.83370312402814   -1.05337023531932   -3.09776700223936
C          -9.87297274755420    2.29715199130732   -1.66038447440632
C         -10.90067293780463    3.01596377817908   -1.15996285142153
C         -10.72211525084939    4.32638912528757   -0.60840735989352
C         -11.63473137151208    4.96801192485348    0.14237660826646
C         -12.91548770308811    4.34789906587366    0.60072056362268
C         -11.43689839755064    6.41706671953952    0.51552605576188
N         -12.50077402196145    7.18174432672277   -0.10799446654177
C         -13.62968350276806    7.52563808736262    0.53945636111128
C         -14.85264210892744    7.59065528105625   -0.05918126859020
C         -16.03737077680180    7.97188862910950    0.58658845856644
C         -17.28422159876007    7.66969353121995    0.09642275192514
C         -18.54633102609668    7.95242900083149    0.66409534659043
C         -19.59499255780727    7.35929742384473    0.02354032289602
C         -19.21010278874889    6.55994772876313   -1.07482661025433
S         -17.49293816025225    6.65883654321420   -1.33245823615547
C         -19.98503763800920    5.68344336166946   -1.81858021313738
C         -21.34344216189690    5.35017420195696   -1.67721511100865
C         -21.72308704785720    4.28040648578356   -2.43832131091373
C         -20.67947151290714    3.70075032399905   -3.19260765571017
S         -19.22696875357054    4.63546335050020   -2.99928150275137
C         -20.81078371708486    2.58331401021325   -4.01065131687111
C         -19.85555473732902    1.86947257017010   -4.71167797129046
C         -18.46271367299603    1.83824160450406   -4.68043777726637
C         -17.47469399691586    2.19769289626818   -3.72222530172445
C         -17.64293496736864    2.35484795788919   -2.35448551263600
C         -16.60461332591791    2.71417678224767   -1.48635451897260
N         -15.77078737119265    3.02078643627568   -0.75368294747097
C         -18.83642622185490    2.02298209372876   -1.69137270875751
N         -19.79178192730992    1.71590940021336   -1.13178080528033
C         -16.16790023267876    2.15035895473701   -4.37983995004146
C         -16.33176470864136    1.57803370702356   -5.66259859225613
C         -17.77206295890145    1.31567685067226   -5.87751244314191
O         -18.28053647945196    0.77956611971310   -6.84213761967428
C         -15.27475628106004    1.31272050445615   -6.49584176244749
C         -13.98979823762131    1.64071558351633   -6.04632772435601
C         -13.84296365539945    2.25025292581063   -4.78238261125262
C         -14.91323897878395    2.50898505823371   -3.93398196991386
S         -12.17509199927875    2.56291416359030   -4.41285089893663
C         -11.70291895269790    1.84444839795280   -5.92868752401487
C         -12.73852072770635    1.41960056376744   -6.68551876509060
Br         -9.88409094382234    1.73960666596115   -6.36011613770331
H         -15.53488320516820   -1.50385502172543   -5.41361722268997
H         -17.46876919838076   -0.47410215535561   -0.90922899267899
H         -18.19508661928025   -1.97196698255532   -6.16602495224457
H         -12.03620797360977    0.73653770611652   -0.67913360524907
H         -10.13952948158536   -2.99944957313709   -5.01534856597182
H          -6.64913190870855   -0.10894360402341   -4.67249716524451
H          -8.88364270805929    2.73863407697811   -1.64532516334771
H         -11.91427110158133    2.65406713624861   -1.20575417972784
H          -9.78029225765961    4.81437193359501   -0.82597714021905
H         -12.71710017902578    3.42347644954513    1.13967722111341
H         -13.57292826939856    4.09963055201061   -0.23268305754136
H         -13.46099330768725    5.01654641661495    1.26175584112059
H         -10.47235949352853    6.78454912173626    0.15375000674069
H         -11.48978829802688    6.56173583192509    1.59718265355336
H         -12.61696634182728    6.97290306990019   -1.09291391376011
H         -13.51434591866387    7.75668971656383    1.59078651615322
H         -14.94084720099380    7.24608546007781   -1.08201357470388
H         -15.97730761977202    8.47128635330651    1.54436813336130
H         -18.64172435952078    8.57084504519857    1.53939977088824
H         -20.62204114951973    7.44794816294198    0.32802846224720
H         -21.99620042889418    5.87954882538596   -1.00693980411260
H         -22.71232206860331    3.85933203616726   -2.44103856618589
H         -21.83558488662270    2.26345576753806   -4.15701102324079
H         -20.25468633802529    1.23733514410185   -5.50187025516650
H         -15.42784095226030    0.85297096866936   -7.45979698490667
H         -14.74447421800222    2.96784094829108   -2.97448721757220
H         -12.62720182452569    0.94830579674394   -7.64483007552235
