77
 SCF done       -149.757935108707          0.000761453841
C          -3.00372524283481    0.05964411790742   -0.76399602821394
C          -2.85331128205617   -0.99485102992211    0.10147702092646
C          -1.66813993642312   -1.74713622452714    0.23185348187402
N          -0.73478160084717   -2.39894278511264    0.38232509755060
C          -3.83723713501071   -1.46171067841595    0.99708505334252
N          -4.57227615308223   -1.88268332876263    1.77307262993326
C          -1.95651347539212    0.60406133458178   -1.62308561151237
C          -2.46685395922565    1.74499488553425   -2.28884946515910
C          -1.71976554691625    2.48401492969475   -3.17187836972415
C          -0.40067140153350    2.07982278763557   -3.40758072715285
C           0.09995452581046    0.93799226263302   -2.74014532042053
C          -0.65794970992017    0.18887124366985   -1.84769829171541
S           1.74808927691815    0.60927509007981   -3.18389655549767
C           1.74141591464773    1.99247821277065   -4.24488655164583
C           0.56757088494735    2.66709987915410   -4.26735423881059
Br          3.28421597776092    2.41478128995650   -5.22478048261183
C          -3.87693882779071    1.94182468995302   -1.90017939969624
O          -4.64507122620982    2.76357279860104   -2.37319326468699
C          -4.18445650150700    0.87843125301231   -0.93841599668222
C          -5.43029321664683    0.60378101192644   -0.42065211081727
C          -6.55749928484857    1.42864979239265   -0.37995270007056
S          -8.11286627890505    0.66405309131360   -0.04464453405778
C          -8.98671857387610    2.16090600207421   -0.03935408719312
C          -8.09995279164934    3.21795076858297   -0.25060630958967
C          -6.75478065884485    2.80463143479033   -0.45398857429750
S          -5.74466537921590    4.18526235923886   -0.62494330688766
C          -7.18072773221493    5.17473534803140   -0.42873468084011
N          -8.29218463560149    4.56348189534914   -0.26296156708869
C         -10.38613089284521    2.19091807546862    0.15714369599818
C         -11.11397159456358    3.33632872399545    0.17073079345126
C         -12.52541999710525    3.34067068404086    0.35569443191658
C         -13.33680750449704    4.41828890676601    0.36020486797998
C         -12.89629242900391    5.83550956368480    0.22170850721427
C         -14.81582279952628    4.23667576368767    0.59742580032595
N         -15.15593875528694    4.61454671373181    1.95337108311000
C         -15.51164372617633    5.88340689163502    2.28008120753363
C         -15.43458082037455    6.40881346634960    3.52271348329595
C         -15.92166222532400    7.69588321858401    3.87164074551416
C         -15.86804561177135    8.27812405841222    5.13660249842881
O         -15.29482462208897    7.58991513141837    6.16164923365896
C         -15.27179760497790    8.22283488834903    7.41895943034104
C         -16.43848948683201    9.55561353842560    5.18473248562796
C         -16.93245602425286    9.97126972881237    3.96643276057948
S         -16.68788151196075    8.76557700016253    2.73565980278756
C         -17.57573210126552   11.19256073817465    3.65261646541253
S         -17.89531683813858   12.43757078473867    4.84340160723815
C         -18.65478772823622   13.49611951588667    3.71767936831462
C         -18.67121727080085   12.93092562980170    2.46781156166804
C         -18.06160741161284   11.63583645907568    2.44392581620747
O         -18.09131710006617   11.10820453427992    1.19978110220323
C         -18.71017750102481   12.04694308008871    0.43445696475495
N         -18.88029583838773   11.76287339669526   -0.94076151782894
O         -19.44097113275492   12.61571685133948   -1.60472159774161
O         -18.46200988314685   10.70583238954329   -1.36198239608174
C         -19.08616928021508   13.16599919635568    1.12721613266547
H          -2.13778790208661    3.34677545251435   -3.66635865178396
H          -0.23188674340138   -0.67660109822577   -1.36861758324766
H           0.38943621015306    3.54167100873811   -4.86602406180082
H          -5.58828586523831   -0.38227626851689   -0.00125750349557
H          -7.10308522012889    6.24376019540433   -0.47153283378526
H         -10.87111138981565    1.23381582071801    0.29804041511848
H         -10.59219134586798    4.26976715133863    0.02445940607945
H         -12.97958807786816    2.36395018360423    0.48049366831706
H         -11.81725739864960    5.93894861186495    0.25608396715688
H         -13.33324092113801    6.43963064712869    1.01852567833069
H         -13.25527795438121    6.24128970735918   -0.72487338432895
H         -15.10563972569132    3.19268660364078    0.44690129355550
H         -15.39558225895932    4.86489076394443   -0.08303108946482
H         -14.67139856989397    4.09506495649382    2.67324786441825
H         -15.94857687032180    6.46069092797478    1.47539193547669
H         -14.99952859207212    5.84382729947713    4.33479150951011
H         -14.77571951215944    7.52602571007067    8.09239273702183
H         -16.28402433844475    8.42324849961309    7.78439486911306
H         -14.70648901167665    9.15967504474634    7.38487599535977
H         -16.50401494309902   10.17418100353077    6.06153178160457
H         -19.02976531515736   14.44265931894433    4.04502252072738
H         -19.58441259134957   14.02104709849652    0.71991202333013
