95
 SCF done       -205.796438235828          0.000719657792
C          -9.77296143464745    3.34689064545702    6.28579003061626
C          -9.25579425717381    2.62664228363262    7.32847672254692
C          -9.95856671333627    2.35927379407589    8.52328593936949
N         -10.48605752118335    2.10664905392921    9.51058522857926
C          -7.93917845362156    2.11803293458573    7.39398880306979
N          -6.87496333158125    1.71719657070490    7.54691729186540
C         -11.06100016525544    4.02595834599002    6.27753731900997
C         -11.13205658200420    4.84874796749652    5.12711112017424
C         -12.21874225931150    5.64318817337766    4.85062677545839
C         -13.29007489747429    5.61931464822715    5.74871857112903
C         -13.21569563130538    4.78394501060715    6.89035207492487
C         -12.11521258538399    3.98479571193557    7.17214969686756
S         -14.65071132882714    4.90033008477550    7.86161857224320
C         -15.32103188257623    6.05569923799141    6.74047623151802
C         -14.51363755504205    6.34010960789310    5.69063803495952
Br        -17.02150595472984    6.77675079105866    7.06075449238933
C          -9.90075982479989    4.69984937323033    4.32524661072397
O          -9.64611512450759    5.28231641862549    3.29773806269529
C          -9.09407717904729    3.66456200805010    5.03706070725107
C          -8.00824560563933    2.99628587434496    4.55918355489113
C          -7.26325731744454    3.23867633104912    3.38060474307890
O          -7.38783213468372    4.34585770032051    2.60910696908142
C          -6.27551949236844    2.43845936332954    2.82161935390851
C          -5.55944943947546    1.15735955193052    2.95649665609239
O          -5.66758007054981    0.27630017253842    3.76356809281494
N          -4.68285865774413    1.16336342309631    1.87383366002993
C          -4.76075576444588    2.28170312234227    1.04766487273161
O          -4.09533487869687    2.47272403739270    0.06461788704847
C          -5.80703010350363    3.10055029461315    1.67149877383839
C          -6.52667660064286    4.28667025118715    1.57194245307479
C          -6.50637861397797    5.33485765025791    0.62104418336598
C          -5.67764514496903    5.33523164516725   -0.45420321617509
C          -5.66394294646740    6.34931967349378   -1.43608380273122
S          -6.70036927351709    7.74264890399481   -1.41170826707764
C          -6.08317046267763    8.33606713390409   -2.93602882828028
C          -5.07188511190032    7.49129510248230   -3.40202113407948
C          -4.84852450296392    6.38936352927408   -2.56825469019757
O          -3.96574344624444    5.38121392527688   -2.78258520143538
C          -3.03753481463187    5.35000133123111   -3.75097277818098
O          -2.37682386446244    4.36624782409796   -3.90773718569397
C          -2.79136547504269    6.56015820795155   -4.64741109887731
O          -1.82246951073361    6.63034092389839   -5.34518953108194
S          -3.99151462372223    7.87118689234950   -4.73354333742639
C          -6.63762930529002    9.51819649978207   -3.45973102344658
C          -6.75713547642229    9.89983571968102   -4.77384992441910
C          -7.27485378253033   11.14644882588797   -5.21631007582453
C          -7.39395054044552   11.25735879652680   -6.56719608081720
C          -6.99895175515258   10.09545918289885   -7.26867966847207
S          -6.44765884990026    8.86856891960407   -6.15405119227404
C          -7.02795583473520    9.86082426204016   -8.63172980435340
C          -7.47021825655599   10.72500000193181   -9.65885407119739
C          -7.39450651600599   10.17620655072747  -10.90383276415422
C          -6.89287677103520    8.85257433561533  -10.92203232609221
S          -6.49957626019951    8.33565978267782   -9.29983859421916
C          -6.71405465262058    8.05409162960060  -12.03286156844901
C          -6.23453484184389    6.74796633482282  -11.95843196462193
C          -5.96783540257462    5.86499379442185  -12.97851657361355
C          -5.87535014444181    4.41897648574014  -12.65458280137811
O          -5.81648391866997    3.92724207501656  -11.54978712924364
C          -5.93009373775300    3.72175340162819  -13.95508720275071
C          -5.96975496621070    2.38173945875633  -14.20810451321302
C          -6.05583523117342    1.93824706167586  -15.54714093305441
C          -6.10649673599721    2.89901755087314  -16.59795701939181
C          -6.20155794067665    2.45149713933270  -17.93064843987149
C          -6.24097568885619    1.11346043848042  -18.20696072099770
C          -6.18848642610199    0.16439521835382  -17.16697921442392
C          -6.09776224461485    0.56679842254855  -15.86387556393268
F          -6.22999963866823   -1.14120603723434  -17.46721175399199
F          -6.33112761068757    0.69042065721483  -19.47521961859761
C          -6.05630822902292    4.28188002966612  -16.30381854955763
C          -5.96123629420048    4.68822365892532  -15.00037178764032
C          -5.85615096918469    6.02211766471196  -14.40401073346563
C          -5.51103056743818    7.16096138604984  -15.09251163299260
C          -5.13149470904760    8.37804840341000  -14.49255809556912
N          -4.77496126183179    9.38385425312992  -14.06826591981059
C          -5.39218689290775    7.22321682429575  -16.49543704438585
N          -5.30285391725883    7.34248527716720  -17.63401195057792
H         -12.24042340947468    6.26355964341227    3.96844424171972
H         -12.10691542657956    3.36304996289019    8.05159277815613
H         -14.76932588782319    7.02967101405396    4.90708318583412
H          -7.64207870733562    2.13607177582661    5.10627015601639
H          -4.04011489946389    0.40441150974923    1.69503644455865
H          -7.20784331407023    6.14077616390202    0.78820171373994
H          -4.98183594035823    4.51984129043693   -0.60992870726091
H          -7.09882620148176   10.17272569933173   -2.73071582561820
H          -7.53068761108523   11.92205549091584   -4.51665021588432
H          -7.75579885005584   12.13347061631243   -7.07382919696863
H          -7.83089649815907   11.71675386189368   -9.45428349644747
H          -7.67631697369622   10.67867350124876  -11.81172477374585
H          -6.99495199861401    8.47654261458442  -12.98599582007223
H          -6.12552504670250    6.32193293463694  -10.96422461911123
H          -5.93591731560398    1.66931850006988  -13.39799434897290
H          -6.23915480013899    3.16447254150109  -18.73942153512732
H          -6.05836990652238   -0.17179816376266  -15.07862044868645
H          -6.10208130442349    4.98401151010871  -17.12069768952680
