99
 SCF done       -200.457038334213          0.000222704803
C          -5.54432116493542    5.40507422160820   -8.75504714396440
C          -5.89081818036671    4.37016569650031   -9.58572706753845
C          -5.59921103731422    4.32810542456226  -10.96535108239602
N          -5.38845158384725    4.22554808277621  -12.08889260348771
C          -6.60974805119166    3.22350641408863   -9.19010956479201
N          -7.20421868270825    2.27467797711456   -8.93238876817227
C          -4.86045067430555    6.62776831397195   -9.15780872146971
C          -4.80068444541879    7.50410906706450   -8.04164593549133
C          -4.19271834615951    8.73505335263731   -8.10566144946045
C          -3.61039232780699    9.11272540887516   -9.32023207013009
C          -3.67749581840107    8.23201266537002  -10.42647002298782
C          -4.29890223574404    6.99071822886501  -10.36527881736119
S          -2.90196801553043    8.89862262370802  -11.82444519577155
C          -2.51279783697287   10.33756018847010  -10.92446864938582
C          -2.92766201526073   10.31771672502092   -9.63538260272075
Br         -1.59714383523237   11.73789450228847  -11.76783831753032
C          -5.43729724827312    6.84787819530895   -6.89187629829132
O          -5.59753631147553    7.32171969692386   -5.76953631390663
C          -5.81918737914029    5.51560225611728   -7.33665266261292
C          -6.23024675169206    4.48749613528439   -6.51744561875741
C          -6.46726966782205    4.46533437418489   -5.14757458046276
S          -6.45410788238699    5.84519795244216   -4.07371147016037
C          -6.84992984538410    4.87306342726622   -2.70624348809270
C          -6.95053097682291    3.50209652218729   -3.03752514810955
C          -6.75284449295085    3.28071978167772   -4.42365006722341
C          -6.83636280932535    1.96976352848509   -4.92180526452272
C          -7.09655021778275    0.93672762219316   -4.06239347478356
C          -7.16955428405309   -0.48248420259574   -4.55961255624509
F          -6.92472886517961   -0.58027027702983   -5.87173614667791
F          -6.27333576776211   -1.27811369405756   -3.95209885961229
F          -8.37485584789667   -1.03531267646691   -4.35535969099907
C          -7.30514323092012    1.14917758861368   -2.66892719136949
O          -7.56170327596225    0.04207045729271   -1.95026815814054
C          -7.77479953014023    0.15243702633717   -0.56143025924876
C          -7.23433171194451    2.43068073142214   -2.17086639963611
N          -6.95828236271161    5.26344148475503   -1.40760264459347
C          -7.20595024882174    6.41116684578835   -0.70726817723066
S          -7.43253695091879    6.11097841914636    1.00312783113085
C          -7.76747568826601    7.78649619041358    1.26046731257964
N          -8.03673819768045    8.20941102462754    2.56556234154563
O          -8.27708777521598    9.38917722095661    2.74068445842106
O          -8.01156250609308    7.35078719745972    3.43229031523262
C          -7.70833931877540    8.51466165291908    0.10500306049765
C          -7.38336842285169    7.75500565527629   -1.03975994573308
C          -7.22950634495850    8.40307043466169   -2.32611461992648
C          -7.95248145033896    9.48208052001643   -2.66520702816408
C          -7.79366269954361   10.29722020688242   -3.84303910773720
C          -6.65154759989412   10.59999036727475   -4.47724988418749
C          -5.29649316997808   10.12036501642197   -4.08256388303038
C          -6.69412203067940   11.54107827710888   -5.65209067582959
N          -7.77572373595745   11.22468067903557   -6.55635776031096
C          -8.10165182119860   11.99359695121095   -7.60001526648608
C          -7.83325048263879   13.32929081615376   -7.72744204029695
C          -8.10584665106967   14.07297029963182   -8.88397982756997
C          -8.22665675632458   13.63298447314103  -10.18198709865102
C          -7.80153431644321   12.43238077007639  -10.84485387513813
C          -6.80111930789002   11.56524045114040  -10.45330601401421
C          -6.40407387798077   10.42426522012732  -11.16910193560500
N          -6.04102438095356    9.44963444763806  -11.65992296071999
C          -5.99401485024087   11.72663922249235   -9.31895981055878
N          -5.24898034296186   11.79694383338971   -8.44373797483688
C          -8.42681337798553   12.41078611070436  -12.16621802784399
C          -9.07210463015139   13.65321866207328  -12.38211421233690
C          -8.91880018019780   14.48966227053738  -11.17133143726409
O          -9.30627603382452   15.62609334455576  -11.00778620652530
C          -9.71621209968839   13.95639769460156  -13.55503572687473
C          -9.73192396154544   12.98325588553930  -14.56159261323462
C          -9.09507069556990   11.74149631563390  -14.33207757888631
C          -8.43659818219685   11.43755488465775  -13.14607661903592
S          -9.24091906714361   10.68453023605566  -15.70387517779453
C         -10.13825897307693   11.91120067037067  -16.55767868258118
C         -10.32271746750242   13.05273700512700  -15.85275604112065
Br        -10.74899634159784   11.56868704961914  -18.29770151544304
H          -4.15903632399596    9.39288623844645   -7.25180637879810
H          -4.32785802767053    6.35595591055331  -11.23459579206352
H          -2.77960140413710   11.12383003560461   -8.94071683394030
H          -6.34918670393771    3.52375224101374   -6.99250865001637
H          -6.70007786837842    1.76219731224540   -5.97141025420755
H          -6.89401982681631    0.55719840171176   -0.05378928707883
H          -7.95471338755473   -0.86334897492071   -0.21605610654186
H          -8.64956865786524    0.77104826880817   -0.33964424338220
H          -7.40397546986050    2.60563048096652   -1.11989272733899
H          -6.95881228271082    4.46100164683583   -0.78509001753896
H          -7.86637326605640    9.57768398783797    0.09367336120065
H          -6.50381188197512    7.99748026140462   -3.00887855349228
H          -8.76417339236249    9.79041127960127   -2.01689507103982
H          -8.70383156890748   10.77793594255442   -4.18354183855099
H          -5.24692572894950    9.92400191598995   -3.01438369570723
H          -4.54075659822074   10.85696966009550   -4.34730509702096
H          -5.07157400287611    9.19300819077586   -4.61027420553715
H          -5.75166360094353   11.51048719824676   -6.21765432060606
H          -6.82202254334381   12.56721185085535   -5.28966234488073
H          -8.04671195609293   10.25258931221005   -6.56977237421155
H          -8.69992427844722   11.50960514534231   -8.36344916736850
H          -7.43697101172677   13.87110193756560   -6.88161644697634
H          -8.27358678718990   15.13759624740139   -8.75651785394180
H         -10.18985647178022   14.91501933476590  -13.69670713059972
H          -7.96839157211064   10.47562843439056  -13.01666903352642
H         -10.85285274048475   13.90959659482281  -16.22642522485175
