96
 SCF done       -190.578266529578          0.001711622102
C          -3.30333661334317    1.21225137519111   -2.41321850321691
C          -3.28764673840060    2.49079236859293   -2.92156163945194
C          -2.17235188988056    3.08325939061889   -3.54326280891855
N          -1.29649795139263    3.61293347240559   -4.06479637899612
C          -4.37059267405381    3.38347828225164   -2.82438088048773
N          -5.21124555144388    4.16220997105471   -2.73007273215874
C          -2.16368663160007    0.30152609846030   -2.34502736734980
C          -2.54539615292121   -0.85883010408382   -1.62137115897814
C          -1.68023726122035   -1.89702390023027   -1.37940377001345
C          -0.37461442665774   -1.78695674441840   -1.87281724463387
C          -0.00249287637086   -0.62534616437185   -2.58811916398746
C          -0.87887320695460    0.42648376142644   -2.83405299262434
S           1.65528706078424   -0.69391981630291   -3.10059582803190
C           1.82457971425114   -2.26245566976330   -2.35735254887117
C           0.69785187720736   -2.71311213397740   -1.75673533245389
Br          3.47209806730525   -3.15475642275890   -2.44452969040552
C          -3.95371956980965   -0.72195865099619   -1.21803963316078
O          -4.63009835901469   -1.51068452975111   -0.56753981992505
C          -4.40891137504545    0.55521554933932   -1.76905674439761
C          -5.72345142087236    0.95715528908222   -1.69330974303987
N          -6.61267845541613    0.24081292447783   -0.99275375162822
C          -7.93805024717119    0.46905648774923   -0.80886298057225
S          -8.88303166751193   -0.86577958627161   -0.20173950736755
C         -10.32042750108451    0.08841255730056   -0.38085056326140
N         -11.55362036871442   -0.48745173209008   -0.08618306885037
O         -12.55223940158772    0.19964144377467   -0.25012195688956
O         -11.55885351160030   -1.64961038396462    0.28770777120571
C         -10.07516981843762    1.35373478136831   -0.84091463690659
C          -8.70833020717338    1.61933645060600   -1.07510789505595
C          -8.21781832886062    2.90855026089706   -1.44704628561199
C          -9.00546435498840    3.89872805582233   -1.95270131913983
C          -8.54941303631876    5.18425583706248   -2.27790466824323
C          -9.39890906563065    6.17200910340212   -2.71738109316531
C          -9.08475338458964    7.50158581190888   -3.08893785708149
C         -10.16116093841976    8.25192733458721   -3.46213363444535
C         -11.38700868446087    7.55622464817636   -3.40441672976445
S         -11.12785683815028    5.91400920079632   -2.85687850332404
C         -12.66641650950624    7.98466374432924   -3.69854380080668
C         -13.12858290764001    9.25780978995508   -4.10262858208824
C         -14.47751722381433    9.33301084681808   -4.27140858324933
C         -15.16437978632261    8.11928858219306   -4.01356856350686
S         -14.00053251635154    6.86672657731707   -3.56086667098451
C         -16.50660632104517    7.87661101402205   -4.04034726479139
N         -17.02703843671698    6.66055634744109   -3.75582473585932
C         -18.36229167028593    6.33506335607371   -3.66723241713775
C         -19.42876112694299    7.03255214377387   -4.16060825419850
S         -20.92127310607789    6.22730648734369   -3.87767750257411
C         -20.12876670382665    4.93446083060508   -3.07277480338727
C         -18.78012221452211    5.11908368201147   -3.01590090872360
N         -17.85425407304493    4.29892000383533   -2.39255022303083
C         -17.82464619666182    2.95085035196214   -2.39260313285196
C         -16.68139797233516    2.28235669580542   -2.08801200855265
C         -16.46961210793703    0.91023872872857   -2.31064093061549
C         -15.25493317263648    0.35675106555640   -2.61643758168096
C         -14.02052480043588    0.95762658102889   -3.05206302531476
C         -13.79746918780171    2.23244458946574   -3.53328989052579
C         -12.53595602972372    2.68407216205115   -3.97740459228222
N         -11.53231920177891    3.12026693748957   -4.32805657413562
C         -14.70960726234115    3.28470476200056   -3.70603697541988
N         -15.33535880938825    4.23216631475450   -3.90758103233286
C         -13.01020718815389   -0.10057736549496   -3.06824218294441
C         -13.61665623439471   -1.33020420983951   -2.70828585239665
C         -15.06345424298087   -1.10854553000027   -2.50917318880603
O         -15.91917582278638   -1.93807740999252   -2.29892641000312
C         -12.90841654360804   -2.49785570079993   -2.56831274911295
C         -11.53193518199896   -2.46185597234267   -2.82222397247444
C         -10.94822546141249   -1.24654781018806   -3.24472803814896
C         -11.66069721707350   -0.06049927645985   -3.36587693749468
S          -9.24187417133195   -1.42134582484916   -3.53715908749230
C          -9.32806652765758   -3.09128886121559   -3.03811277872887
C         -10.57274985329306   -3.50554310236370   -2.70498595294792
Br         -7.75474770350313   -4.10981131469792   -2.99512675129682
H          -1.99744138726517   -2.76741944346080   -0.82690973672852
H          -0.54933562749813    1.29035925059694   -3.38691528748065
H           0.62371556391017   -3.65898330498804   -1.25194154066304
H          -6.07689332075376    1.82301884446097   -2.22942732893074
H          -6.21262920065838   -0.63278547983983   -0.60828301984219
H         -10.86415346355021    2.07044212219158   -0.97471780444217
H          -7.17636890402359    3.13388606306633   -1.27560364596863
H         -10.05020248662441    3.69969770163747   -2.15361642612083
H          -7.49655547157162    5.40921530647246   -2.18461275984247
H          -8.06995420409127    7.85808122739546   -3.07232232559663
H         -10.10601898843160    9.27830082924639   -3.77947931381825
H         -12.45218736610639   10.08099199760661   -4.24789811917445
H         -15.00466028243194   10.22186899103540   -4.57020443357782
H         -17.19822077900195    8.67862807721355   -4.25043715123667
H         -16.36013213790688    5.88723033664890   -3.70433702887354
H         -19.43029368755050    7.95817624652725   -4.69819488320896
H         -20.70256703858065    4.12643357556533   -2.66751068898091
H         -16.97625461762165    4.74688349711869   -2.15609760965988
H         -18.70931946962501    2.44369443977395   -2.74932485337525
H         -15.82771576027264    2.85805856246465   -1.75732932811132
H         -17.30537868834096    0.22283562521362   -2.24634299678236
H         -13.39647886166931   -3.40845324590882   -2.25976848041819
H         -11.14802344460889    0.83899029103961   -3.66083589288183
H         -10.80692510271364   -4.49960534990208   -2.37151672851267
