113
 SCF done       -205.976849102233          0.000441742374
C          -6.59876711250383   -0.84209335696529   -4.14603071232320
C          -6.06001840164588   -2.06271824662484   -3.83374822921472
C          -6.14174369987586   -3.20007305187989   -4.66477880579770
N          -6.17369479511805   -4.15691723582020   -5.29805898651382
C          -5.34177657106396   -2.35890010301974   -2.65627891959461
N          -4.74738737074385   -2.67728195140906   -1.72634982269798
C          -7.31914222014279   -0.51953109619288   -5.36931801044553
C          -7.65535960142910    0.85637418687341   -5.35325061417253
C          -8.34797578585026    1.46202641562772   -6.37364876949015
C          -8.72345227496063    0.67405327800448   -7.46598920727870
C          -8.38388382146395   -0.70060837893158   -7.47381119573394
C          -7.68734695998141   -1.31378663573034   -6.44090030428802
S          -8.94681383784236   -1.48949212721617   -8.91591001210247
C          -9.61936684488397    0.01661223878245   -9.48170367801415
C          -9.43399612147925    1.05789225399262   -8.63574788417502
Br        -10.50341696248412    0.07204889164390  -11.13441060775870
C          -7.15440936581884    1.47731227716204   -4.11153079017613
O          -7.30044086695675    2.63461357869276   -3.78318163552155
C          -6.51457443504263    0.37232913680857   -3.34724881838713
C          -6.10112762174968    0.45412667710584   -2.05735019770314
C          -5.93057366366431    1.68388123739045   -1.32183273018951
C          -5.26735927231192    2.76930043042303   -1.92011536929955
C          -5.06985074919838    3.96029332549319   -1.26192905804166
C          -5.59206893745228    4.15519427463707    0.01583793936768
C          -6.25607865020282    3.11331169987751    0.61599308839678
C          -6.38285225887008    1.86146883221978   -0.01006251631257
N          -7.05626652369088    0.99369419126118    0.82612974075763
C          -7.43326101901446   -0.36745698082663    0.56108332716345
C          -7.45229552233200    1.61788258097939    1.98674944217733
O          -8.02495644399686    1.07999590199440    2.90001469936692
C          -7.04933929321926    3.08296830200452    1.88376817004692
C          -8.34412813747752    3.91783423788472    1.69495147302929
C          -8.97545431774050    3.50014603576238    0.36180467665729
O          -9.41712868036822    2.41078442775345    0.07301705396870
N          -8.91524998222525    4.56773492637593   -0.48224224607372
C          -9.31314564163750    4.49900067617242   -1.86253775928965
C          -8.36614390184152    5.67857366887250    0.14135895408476
C          -8.13527035066674    6.93361273585443   -0.37557380787536
C          -7.56363410244123    7.91178514620083    0.45319790067557
C          -7.26929993611163    7.59096129019931    1.78351189348025
C          -7.50498666851361    6.32461430813886    2.29423034546370
C          -8.04954222192663    5.36415074651709    1.46990260697536
C          -7.30274172656976    9.21496177357507   -0.11366244530361
C          -6.57076264263851   10.20076212082630    0.44266797079354
C          -6.33030108657009   11.46367457134582   -0.16740384231714
S          -7.04965441782451   11.85786534639183   -1.70035835598589
C          -6.26190514772968   13.38373383220475   -1.71140732399361
C          -5.46966866995278   13.59718190313585   -0.62985950689425
C          -4.74026806419813   14.88465782162564   -0.43166510389574
C          -5.49579233605613   12.49074336514358    0.28255612150599
C          -4.79552196371583   12.40522367789278    1.52808409055883
C          -3.64223088788872   13.03900719826736    1.86236258778596
C          -3.01761188726646   12.89115580892442    3.12031628769542
C          -1.81605532068173   13.46811988544282    3.42394701313478
C          -1.15964461083898   13.33337527668573    4.65309749626116
C           0.06880032335247   13.88933862775830    4.92766836002863
C           0.80736652638828   13.79923332905263    6.13052121784294
C           2.00957096388447   14.44215986122123    6.09833218318214
C           2.28256471953851   15.07443692276870    4.86597832498188
S           0.96332647075571   14.83475020193871    3.74825224483804
C           3.40474013974711   15.79449770913006    4.49452061424273
C           4.56246874153960   16.07898965230687    5.24823420039241
C           5.49106923324023   16.80872412922022    4.56953298676607
C           5.11603040138770   17.14298619572306    3.24175433969168
S           3.52870098181314   16.48924972761925    2.89382681851096
C           5.89027720178043   17.86143723969647    2.36513646417304
C           5.58888062859188   18.23300864641568    1.04143503368976
S           6.79212248888335   19.11646116406406    0.10750803784395
C           5.81737446447435   19.22625933031251   -1.30418273644026
C           4.60610310365365   18.61419567245139   -1.09040178553540
C           4.48366157457938   18.05999744669802    0.22382886289134
O           3.27392467986959   17.47959407411657    0.37859040241229
C           2.63077710946797   17.65043003561520   -0.80468150217971
N           1.32344033177264   17.13061376186093   -0.92450060677710
O           0.76994783262451   17.29730773714673   -1.99803818589054
O           0.83929838503876   16.55853332640158    0.02961988382630
C           3.37356956435486   18.32603025863948   -1.73696126244389
H          -8.59052137973022    2.51227430234439   -6.33041570109085
H          -7.45769911297948   -2.36487211095878   -6.49120749991691
H          -9.78377561438208    2.05587559397316   -8.82708940602465
H          -5.86964246326991   -0.46045515867240   -1.53174356075760
H          -4.87137158692566    2.63792629657962   -2.91479131428953
H          -4.52767803371359    4.75779553800994   -1.74505113913162
H          -5.47958776271685    5.10402844963081    0.51685620897374
H          -6.56542290105372   -1.03001125239460    0.55460194719181
H          -7.96357074585661   -0.43060456414723   -0.39063029942629
H          -8.10395233753251   -0.66941833144237    1.36613821485339
H          -6.51900808723555    3.42508896087099    2.77363314568659
H          -9.01615116264040    3.71729052713147    2.53293504014041
H          -9.85848224063479    3.56592942922272   -1.99837847100758
H          -8.43836373129152    4.49039424806953   -2.51630547303744
H          -9.95857894539379    5.34111365958366   -2.11355566425445
H          -8.36924123316818    7.16754203395150   -1.40235009667690
H          -6.85487575257675    8.34439543624755    2.43390398360512
H          -7.26441386887189    6.09684974372391    3.32200593759524
H          -7.72254907613809    9.38569167238564   -1.09755752075593
H          -6.10185115070927   10.04553406354956    1.40322556609622
H          -6.43853395711425   14.05259534941234   -2.53103797107955
H          -5.17294390487256   15.65455296670601   -1.06674112776797
H          -3.68939742416297   14.78285153286266   -0.70114107612394
H          -4.80303626475442   15.20563506314497    0.60598811907408
H          -5.22345376974830   11.73586694545740    2.26443272582721
H          -3.12827643359048   13.65643378639848    1.14287590399665
H          -3.51592187687134   12.28595293728465    3.86786690096229
H          -1.32222441910546   14.06570973345909    2.66712096749095
H          -1.63391474199614   12.75495081225027    5.43570437971391
H           0.42873047244965   13.26091892398918    6.98186145805407
H           2.70143347983366   14.47666305549834    6.92085183238985
H           4.68167619201618   15.74042400553170    6.26196414579506
H           6.43690323255853   17.12065912919582    4.97619540365795
H           6.85868642304345   18.18219791691830    2.72546324174841
H           6.18645827849365   19.72068807037551   -2.17765640170128
H           3.06575574143014   18.57160485370559   -2.73193190725553
