101
 SCF done       -168.032400348529          0.000335973981
C         -13.10004461422354    0.07154712614622   -2.94616675888072
C         -12.04001889705236   -0.50086456633953   -3.60260315220831
C         -12.13940395470574   -1.65984313153553   -4.39705991174305
N         -12.17004409599328   -2.61534964846412   -5.03289401229472
C         -10.75056813594991    0.06460217367202   -3.63121920080803
N          -9.69961548910177    0.51268394827785   -3.75698987644494
C         -14.50353953001312   -0.28303027756444   -3.09056983086088
C         -15.28268150362898    0.73275155715909   -2.48331093655055
C         -16.65523332826750    0.70309443230361   -2.47668050118246
C         -17.28710908836829   -0.38174247901343   -3.09564828673017
C         -16.49894232467355   -1.39356237386603   -3.69296809912695
C         -15.10959603189647   -1.36218667397542   -3.70384388147527
S         -17.48447547537615   -2.64302873309575   -4.39096613420608
C         -18.92217371067564   -1.79850290208225   -3.88152146115357
C         -18.67940572056643   -0.64141774373927   -3.22156643117617
Br        -20.60774708924916   -2.52519677208204   -4.26731502440962
C         -14.39065365071334    1.75008973075581   -1.88804798812134
O         -14.73552472193680    2.73307033004223   -1.26119649743863
C         -13.02150926369988    1.26069872565414   -2.12754331997339
C         -11.88612183518060    1.68982597496654   -1.49272296911063
C         -11.61350820647521    2.93844311947938   -0.89661052849847
S         -10.42197104437191    2.95553153760715    0.38779036519605
C         -10.41635283288211    4.68963736893414    0.43184071082618
C         -11.31911677952445    5.21512476541982   -0.47553243996005
C         -11.97942310800020    4.23777642776048   -1.24500608279841
C         -12.84465178279380    4.62002940923368   -2.39530799617507
S         -12.30621445254300    3.76736496286869   -3.93950498566895
C         -12.86613970732883    6.12596662171432   -2.63113137819389
C         -12.98487456513417    6.85104461266946   -1.29955080339291
C         -11.67468884051880    6.68298684995515   -0.53373070492398
O         -11.83943818623159    7.24157923211713    0.75011520451554
C          -9.43278980662215    5.39540192770088    1.20667599444181
C          -8.52897264314736    6.21149962159881    0.59089056159151
C          -7.43169396874138    6.92763661233906    1.14920657631685
C          -6.60818832157588    7.49855842311328    0.22808247912971
C          -6.99621601268964    7.27604599498946   -1.11237939505255
S          -8.49063551318871    6.35870160356528   -1.16210706703787
C          -6.37708861065683    7.58087853490602   -2.30423229670689
C          -5.13965175091744    8.21378623123420   -2.57209325616991
C          -4.79890213037650    8.21705010142280   -3.88923034705463
C          -5.73823456007765    7.58115783446027   -4.74644446991663
S          -7.11831979338219    7.04673389715138   -3.79534586097941
C          -5.66941348909833    7.43897893523629   -6.10332229638617
C          -6.60880387811829    6.75408686924863   -6.91851775304091
S          -7.05375599891162    7.51520422385933   -8.43505573565904
C          -8.28617400046159    6.32350562698559   -8.72904532243161
C          -8.28207351614838    5.35311955068245   -7.74000846301328
C          -7.32379247604477    5.57971945918951   -6.73437365650942
C          -7.03433622249502    4.51099818722297   -5.72701679196507
C          -8.30494228285398    3.72376115013987   -5.42588764405814
C          -8.84651433150812    3.10619915679611   -6.72267128334650
N          -9.97374091592250    2.20897239278160   -6.54241556764054
C          -9.25613490854603    4.21610499086573   -7.69648217574816
C          -9.15995714199381    6.40392786075982   -9.85127026383969
C          -9.12450796391990    7.38658998343404  -10.77399882874936
C          -9.99122591174604    7.53877548572652  -11.91165929481256
C         -10.61770217980387    6.58737441380085  -12.61899529007967
C         -10.47592473962644    5.11482135255982  -12.39211019229183
C         -11.53314322578347    6.93258832625460  -13.77717993053057
N         -11.73663022614834    8.32640198093489  -14.06134640329233
C         -12.52385466921688    9.10342343212121  -13.24004320289342
C         -12.45530362086525   10.42604500248875  -13.14314539354156
H         -17.22662734345201    1.49116803630949   -2.01164349432186
H         -14.54739486365945   -2.15605617545872   -4.16737316137379
H         -19.44895071512453    0.00321649579225   -2.83776208420224
H         -11.07491931067116    0.97273652435377   -1.41111697683429
H         -13.86229236297175    4.25524756623504   -2.22679186598181
H         -11.04818355233179    4.20799284338213   -3.89519063471981
H         -13.70125720727106    6.37327552331418   -3.28703033626016
H         -11.94255245296011    6.43870717117523   -3.12746684085974
H         -13.79763863459023    6.43298938914052   -0.70412157253920
H         -13.17770020779856    7.91315626553196   -1.44560891615103
H         -10.88173318255033    7.23002276468710   -1.07508389894190
H         -11.03466923180076    7.09571320634598    1.26277602894170
H          -9.30239412713687    5.14486853862101    2.24960998498693
H          -7.28068375564673    6.97086837993009    2.21331002903796
H          -5.72119445147125    8.05606728608118    0.47264754364357
H          -4.53885265797029    8.63531449814475   -1.78595158132352
H          -3.88969388574680    8.63872584352564   -4.28065094543667
H          -4.89144701612640    7.98963294672395   -6.61822287044885
H          -6.60245195606447    4.91182511135339   -4.81341548867943
H          -6.29138890290103    3.83406040154552   -6.16424457347191
H          -9.05471294282190    4.39345468359421   -4.99427341664268
H          -8.09721030172737    2.93303488864782   -4.70270687536121
H          -8.04484674504629    2.51103955480708   -7.17830156782290
H         -10.74860534059678    2.69638694986721   -6.10020725856755
H          -9.71212173847510    1.44395206755818   -5.92820671731263
H         -10.22974494808231    4.60735617215278   -7.37893479138213
H          -9.39188310676483    3.78268319729705   -8.68836806990088
H          -9.91563133611730    5.63625963211450   -9.89903125984807
H          -8.40378947554049    8.18488710307694  -10.63379132670529
H         -10.11672062147600    8.56778446331562  -12.22599756206783
H          -9.49799192827126    4.87654077810245  -11.98044649066341
H         -10.60624440355711    4.57577024131275  -13.32922193178961
H         -11.23778191038583    4.75691260151418  -11.69895991731125
H         -12.51354549168815    6.48416519655020  -13.57271438340263
H         -11.14491283180930    6.45583547128908  -14.68592170461982
H         -10.93334780643336    8.80431350046075  -14.44567324785119
H         -13.27598009535634    8.54335780392244  -12.70040287160439
H         -11.71240595526056   10.99603124606135  -13.67530571452864
H         -13.15352442413953   10.97804906332606  -12.54389775348857
