90
 SCF done       -177.899287225296          0.000409654760
C          -6.01422505472386    3.44569687882525    4.17543875766595
C          -6.58183432758470    2.67098507599517    5.15517883857550
C          -5.95315427210890    2.36496223745425    6.38037052061620
N          -5.50057921152360    2.08219012249462    7.39698302332766
C          -7.83863512517038    2.03403532207318    5.08871442225709
N          -8.83826909767911    1.46831672001841    5.11767455072957
C          -4.67695291415788    4.02384694658475    4.24086677375914
C          -4.37979066935169    4.61138751432840    2.98876651137350
C          -3.18901018584942    5.24411996323524    2.72819933257760
C          -2.24762738225863    5.31133729051591    3.76059714206061
C          -2.55527259301335    4.72709920132482    5.01194936035661
C          -3.75662415964747    4.07876853896803    5.27113021470007
S          -1.25879004551787    4.93555387562158    6.15040991335631
C          -0.33463286473995    5.79318281374348    4.94616426029922
C          -0.96127576754486    5.91709583392209    3.75228256943729
Br          1.36967932278409    6.44661165062229    5.37917237824048
C          -5.53058080597602    4.44348861700530    2.07875819930016
O          -5.55621629891865    4.78166088515082    0.91255650285781
C          -6.58699021414123    3.79631383818404    2.88573568782031
C          -7.91489653834068    3.63779491698950    2.58614150791878
C          -8.65436060279607    3.97193222517199    1.43665199107124
S         -10.40748812552670    3.78911495797889    1.56604006031191
C         -10.62222748059555    4.40267575672493   -0.02540484451994
O         -11.82464901338296    4.55125427055677   -0.58542019773824
C          -9.41480888086595    4.71182059529302   -0.65616438378155
C          -8.32035283395052    4.45123425981570    0.19012767616688
C          -9.37208262050202    5.25896304511396   -1.97861801621694
C          -8.24803630766947    5.41681001542744   -2.72150690112843
C          -8.25028916301062    6.02339335853184   -3.99347111866270
C          -7.15883813644070    6.13044443518595   -4.81270374363485
C          -7.10214361223738    6.80111412602791   -6.06236483762828
C          -5.88935185545045    6.74830807163992   -6.67272731617472
C          -4.91731600981432    6.00812873062451   -5.95694774579863
S          -5.59230520111825    5.41535064845417   -4.45402110559853
C          -3.62701444680453    5.72571882944763   -6.35089215364727
C          -2.95790982537576    6.18606874581726   -7.50996439310279
C          -1.69633452564694    5.70297030741371   -7.64812201675572
C          -1.29285930507213    4.81026786683227   -6.61792873171403
S          -2.58107597344830    4.65775864910434   -5.43293413588887
C          -0.10074848183012    4.14306644342356   -6.57516629794197
C           0.32792313769790    3.17472337269399   -5.64532472916246
S          -0.65139111613071    2.65076580943124   -4.28146055378590
C           0.54626309434503    1.49716501229165   -3.82127099276860
O           0.39427794510134    0.68957455222032   -2.76501127818039
C           1.65614055745232    1.50724184689487   -4.65938554985663
C           1.50853996792639    2.47396974553552   -5.68169235344576
C           2.72122267837240    0.57125309172051   -4.49890608467196
C           3.85066480107654    0.52911647737184   -5.24623204761042
C           4.88612015444398   -0.42603509766329   -5.09737779273217
C           4.86131461920430   -1.68237773781673   -4.56423064913133
C           3.79860838151539   -2.59347724313908   -4.19865759262206
C           2.54246551378612   -2.67006826892323   -4.74591860080660
C           2.06952697519240   -1.83598941718413   -5.77746056489701
N           1.63352043743294   -1.22049905489197   -6.64311907759452
C           1.58892459095665   -3.64683582391373   -4.39697908679978
N           0.76493563675642   -4.40386695973067   -4.13853364575226
C           4.37993564402161   -3.60944761499987   -3.32356046571555
C           5.79007815474147   -3.47250491523797   -3.34009147140770
C           6.15187774513696   -2.31096135567464   -4.17734725269778
O           7.26257147300685   -1.92106873089118   -4.46037619632692
C           6.62248320628468   -4.31811836289446   -2.64849391997657
C           6.03486269720675   -5.33935327334180   -1.89419836968510
C           4.62498832871077   -5.45536804762387   -1.86826215062761
C           3.78286119500648   -4.60553601970108   -2.57516678484390
S           4.11080353623248   -6.77606385370114   -0.86267872728701
C           5.77461164751537   -7.15351544937314   -0.50151186906909
C           6.67011852270681   -6.33270835085922   -1.09896393641477
Br          6.17083199693353   -8.59434018925741    0.63221542679708
H          -2.99325280490054    5.67945066367110    1.76082588983196
H          -3.94321232862611    3.65390190222956    6.24287342977299
H          -0.53710756006131    6.41706905983045    2.90082013410210
H          -8.53007824030072    3.23011874065394    3.37965153751936
H         -12.53362427136185    4.26871209177248    0.00559057646977
H          -7.29840198188146    4.63039703199695   -0.08818204434701
H         -10.32806530263079    5.55392594264396   -2.38955743661545
H          -7.29494312750772    5.07409970355349   -2.34182663703777
H          -9.17907900495520    6.45031029622140   -4.34976694145857
H          -7.96420089320378    7.30548712109568   -6.46220909664664
H          -5.66934091752380    7.20230278820600   -7.62214098292135
H          -3.42529604531681    6.86185932595546   -8.20324259684239
H          -1.03819501260833    5.93961932287982   -8.46531655731621
H           0.59960907828663    4.34686517818894   -7.37493845373894
H          -0.47177305787065    0.80695189887578   -2.35548406412305
H           2.24078519192334    2.63549186880736   -6.44999353736696
H           2.58897961327812   -0.13261241975447   -3.68782916256919
H           4.03169752315695    1.31072215979182   -5.97040141041031
H           5.87662627905382   -0.10387521676795   -5.40713112857697
H           7.69359147767929   -4.19714934735013   -2.68809343951331
H           2.71407595495861   -4.72969489900646   -2.52058385060670
H           7.73506451132321   -6.42168093771217   -0.98544016700935
