100
 SCF done       -171.321739946400          0.000520539474
C         -14.71977935347316  -16.03080998909346   -4.18492214592562
C         -13.43694072945683  -15.70179716425322   -3.77749050807235
C         -12.34250664526035  -16.57445862587773   -3.83608387523933
N         -11.39565137335989  -17.23106049342768   -3.84883403628230
C         -13.02902433572176  -14.47491195340051   -3.23124946661157
N         -12.57227050713314  -13.52807833846860   -2.76028898756420
C         -15.10359898479995  -17.34829521900013   -4.69798210278346
C         -16.48590528290740  -17.32598220731058   -4.99349767402768
C         -17.15752096614203  -18.41455337754034   -5.48620171269458
C         -16.42688547273783  -19.59153474428582   -5.69777504156081
C         -15.04845513126577  -19.60428263011740   -5.39925205296702
C         -14.36794452647449  -18.49787617538614   -4.90087491275524
S         -14.33752702131967  -21.15810635479598   -5.72978660782919
C         -15.88735032496031  -21.75811181353259   -6.25724511426794
C         -16.88382517538115  -20.84586603683802   -6.19097398770481
Br        -16.03942766788729  -23.53556306840986   -6.84606223610712
C         -17.02099734063997  -15.97814742738977   -4.67748800122258
O         -18.18060300550584  -15.63032560268779   -4.82096700736579
C         -15.88011713858320  -15.20378007210903   -4.17858787262005
C         -15.95049222728903  -13.86499188756891   -3.78117470703774
C         -17.10173565015749  -13.11260920890769   -3.79339844614437
C         -17.17607988166949  -11.77322801498362   -3.40818431484730
C         -18.33014056156007  -10.97884264064163   -3.41041981400041
C         -18.12321154503958   -9.68717389409610   -2.98740425533261
C         -16.79664425041555   -9.41925467686245   -2.63654473461438
S         -15.80672078225505  -10.84530300120629   -2.85155473917094
C         -16.26167730500633   -8.21162426828725   -2.17770888101153
C         -16.93538701226013   -6.99947907208143   -1.97456359705005
C         -16.12481817829971   -5.98688230799224   -1.52234160908254
C         -14.78501802708896   -6.35991941700235   -1.34922254470378
S         -14.57549527298436   -8.04749108904499   -1.78069631933022
C         -13.73334559932794   -5.56252194987418   -0.91358862310353
C         -12.43409155088775   -6.01207979886319   -0.76722607066100
C         -11.37321788991140   -5.22926396349546   -0.35133779814309
C         -10.08142574256718   -5.72686037323542   -0.21734485800257
O          -9.79909346262159   -7.03485711793900   -0.47735774365730
C          -8.47441620311561   -7.24564419644541   -0.27000523729729
C          -7.88240548992668   -6.03656459711433    0.13331099272611
C          -8.89175899696904   -5.07785987818342    0.17061775362811
O          -8.78500843357381   -3.77600733739007    0.50677058341903
O          -6.57775000871841   -5.78788007855675    0.44541989788879
C          -7.91645790108491   -8.51740133044538   -0.45285149703273
C          -8.66411842867361   -9.60946071607895   -0.82703207103883
C          -8.16205461219401  -10.89828818159598   -1.00140961869665
C          -8.96763015737075  -11.96317204854292   -1.34212302571761
C          -8.55052991848092  -13.28132390769833   -1.51180939062615
C          -9.39464308364325  -14.34909458336662   -1.81868608911391
C          -8.64146452310974  -15.51510575118310   -1.90200281845043
C          -7.29260651975513  -15.23656199535219   -1.66020974584279
C          -7.12695917176807  -13.78458765004802   -1.38483730262775
C          -6.53870028691685  -16.40411833511319   -1.75639441604665
C          -7.38555995249669  -17.46692501619789   -2.06368747670930
C          -8.80319504545379  -16.96450979408666   -2.17182064856880
C          -6.98592117553916  -18.79897304298536   -2.23873848008575
C          -7.82933851709741  -19.82818898048579   -2.56803126003561
C          -7.44993128591686  -21.17133161844331   -2.73364675191148
C          -6.19702600871154  -21.74640171521762   -2.59186238820594
C          -6.29719227080538  -23.12276567561929   -2.84502801468642
C          -7.60422983222160  -23.46015613277418   -3.15355724849845
C          -8.45164707440407  -22.24262655334232   -3.11138981197798
C          -7.70082511157094  -24.84558498995143   -3.40368941494590
C          -6.45836046109311  -25.41035023377392   -3.25766312182811
C          -5.45205887122370  -24.34416396078289   -2.88616297639150
C          -6.06786405438807  -26.78037337309701   -3.40945419841558
C          -6.87820200173617  -27.79301010441227   -3.72838302910617
H         -18.21355656776918  -18.36571140312614   -5.70083656502719
H         -13.31372543808324  -18.56242993114143   -4.69116153872873
H         -17.90054473365317  -21.04514569854394   -6.47704584893306
H         -15.03919592332513  -13.38510200535251   -3.44374136091205
H         -18.02216683585180  -13.57247768582829   -4.12334700798136
H         -19.28249453136906  -11.36987307765218   -3.72138608670863
H         -18.89735197885283   -8.94333258237159   -2.92712675518819
H         -17.98806777687471   -6.88899333730917   -2.16186578248747
H         -16.46657760602819   -4.98843538335944   -1.31241311285150
H         -13.96234803984446   -4.52997942557178   -0.68286704594644
H         -12.22859824197294   -7.04914178751583   -0.99786168250655
H         -11.51369980156622   -4.18506759419621   -0.11602938197285
H          -7.86157207722814   -3.59707507765728    0.72791393697578
H          -6.06632453668896   -6.59741539870828    0.34565264267871
H          -6.85396512674983   -8.62678363392482   -0.27866796562359
H          -9.72222211897915   -9.45502354758665   -0.98710957261005
H          -7.10259610476912  -11.05893097510993   -0.84833260919005
H         -10.02428221374053  -11.77530192072738   -1.48430481768516
H         -10.45523512817187  -14.25695691081969   -1.96932405392368
H          -6.46614812657826  -13.30120785782342   -2.10676919309611
H          -6.72250902915811  -13.60007115717809   -0.38773928339064
H          -5.47443057565437  -16.48694021851218   -1.62189064278403
H          -9.45830033883472  -17.44494380350231   -1.44303640205454
H          -9.24300277398448  -17.14977757951047   -3.15375386471284
H          -5.93311202584663  -19.00811569262536   -2.10351733734847
H          -8.87684605860650  -19.60315519426586   -2.71987276828964
H          -5.29394820461604  -21.22642868012461   -2.32851493405606
H          -9.25274905878781  -22.31595565090220   -2.37332380102332
H          -8.91759139484621  -22.02501600386526   -4.07450696735612
H          -8.60331886328624  -25.36687154079335   -3.66550010656203
H          -4.65485727149481  -24.27620989328012   -3.62926477015735
H          -4.98372558950981  -24.56054009747403   -1.92368202925854
H          -5.01568031028862  -26.98144356189209   -3.24435179627320
H          -7.93016602191111  -27.64877466030578   -3.90288401745551
H          -6.50968825456388  -28.79926527735244   -3.82349827202264
