102
 SCF done       -186.699066286176          0.000473395955
C          -5.54316768564844   -0.23900032981534   -0.30994425911322
C          -4.53929505852335   -0.82012492851722    0.42610108713580
C          -3.66904079701429   -1.81074497913414   -0.05424690445149
N          -2.90433942330618   -2.59732106161109   -0.39872028850239
C          -4.28461470983804   -0.51338392451120    1.77823488106727
N          -4.04303046662675   -0.32595596735853    2.88516801733668
C          -5.97450017932423   -0.63433816337011   -1.64610926664662
C          -7.14898625381063    0.08802336970942   -1.96700170011909
C          -7.80130629855705   -0.05716820303402   -3.16501356102329
C          -7.29025616659008   -0.98853808508173   -4.07657574948142
C          -6.13980495722040   -1.73373166338582   -3.73289836952469
C          -5.45670093170512   -1.55767131870837   -2.53396294597952
S          -5.72610201837635   -2.87893053528486   -4.97626558599555
C          -7.07726177624715   -2.33215583969951   -5.93363229452707
C          -7.80028710316766   -1.34532414588563   -5.35553606378074
Br         -7.42544710744767   -3.12912670566202   -7.59337315407306
C          -7.52798330736997    0.95138256933909   -0.82455001272694
O          -8.48796786821227    1.68797274643640   -0.76923150719680
C          -6.44141531949857    0.78035942831539    0.16199640675880
C          -6.22182522502989    1.63492510139499    1.21511462133771
C          -7.17412153459943    2.52218782729221    1.75253609860186
S          -6.65094478692046    4.11662675475251    2.23975969049500
C          -8.27706619416113    4.59951028049298    2.50199275731306
C          -9.18142403660552    3.60664454041942    2.29107864616624
C         -10.65223025552814    3.76921701822797    2.47597832269696
C          -8.56020560865563    2.37921404535872    1.90442298114446
C          -9.26454819334735    1.13959325243008    1.87557354533774
C          -8.69910653562438   -0.06942151692684    2.14519234981705
C          -9.39693333380502   -1.28831196154051    2.19636979628615
C          -8.76105253743148   -2.46711436037366    2.49723673197477
C          -9.38152284763155   -3.71190710650195    2.59868573442474
C          -8.69921635271278   -4.88365045780585    2.86343852826870
C          -9.24545292006438   -6.16547977703203    3.09707037952935
C          -8.31648159907915   -7.12807993696625    3.37392446473021
C          -6.98945492544422   -6.65546996713025    3.33829241905819
S          -6.95252941900256   -4.94961496438891    2.97536158409492
C          -5.80628688948087   -7.35980599838558    3.51474761488841
C          -5.60801536040614   -8.68701368880596    3.93949136220292
C          -4.29304339552474   -9.05339536573375    4.00476093860644
C          -3.38577184699222   -8.04802114102878    3.59577903994959
S          -4.27528953164780   -6.58903189711610    3.17980081364055
C          -2.00843547489048   -8.12621397704822    3.61843128553726
C          -1.12228442828457   -7.18217865499817    3.06877178644435
S           0.40710706843546   -6.85069476949166    3.83361807428957
C           0.70981323646582   -5.56453652424629    2.72629176468214
C          -0.27067003849231   -5.38913450711624    1.80272791753599
C          -0.19795401038817   -4.36849338706124    0.72059312721180
C          -1.32260862815350   -6.34644469166342    1.95490092485209
C          -2.35080139645574   -6.63841411179562    1.01654055151763
C          -3.00245030804988   -5.78378465639128    0.18083921670012
C          -4.01888850009239   -6.24518240004558   -0.67687329706158
C          -4.93394864611002   -5.43313398026382   -1.29304244892294
C          -5.92333879644304   -5.95755028820013   -2.13022921545069
C          -7.04320233602963   -5.38152989567842   -2.68606783011310
C          -7.82644348563899   -4.21334688570516   -2.40270287082415
C          -7.81226912131478   -3.40402008675812   -1.28637722943724
C          -6.89774370532205   -3.40902954728174   -0.22383642069122
N          -6.21880703809712   -3.28426086649454    0.69728602185164
C          -8.79777932426462   -2.43945019301937   -1.00379622076151
N          -9.56994962936291   -1.65569567669103   -0.66941449049633
C          -8.81586606584534   -4.07750036715930   -3.47438831729068
C          -8.70324142076907   -5.18134054821315   -4.35284771012001
C          -7.66014245923013   -6.08835110644403   -3.83522939252671
O          -7.35175278647389   -7.17835816718108   -4.26685772046470
C          -9.45120220063699   -5.30361854806808   -5.49656469684371
C         -10.35371115408402   -4.27659481868384   -5.79654116914025
C         -10.47126377534784   -3.18530764886677   -4.90709528566017
C          -9.72025624140407   -3.06868546816264   -3.74298280811611
S         -11.62118841741173   -2.01477154514054   -5.48172003430563
C         -11.92176906612133   -2.99686095367916   -6.89217605981473
C         -11.20311140093143   -4.14279174843754   -6.92917708373092
Br        -13.15550560002780   -2.41162076435359   -8.17828849817964
H          -8.68950781013568    0.51376454118192   -3.38534037901771
H          -4.56579064218162   -2.12747707199933   -2.32538778699695
H          -8.65848695742598   -0.88380706963910   -5.80895715172789
H          -5.21317510347839    1.72412787550771    1.60402869202303
H          -8.47673817689461    5.60892372170196    2.80623203173938
H         -10.89185497339950    4.80083897542223    2.71988670582475
H         -11.00780021635678    3.12763505516669    3.28144537551345
H         -11.17500218443126    3.49257532251991    1.56185581439810
H         -10.33177248688309    1.19228866193704    1.71439311115536
H          -7.64231127697036   -0.11417055128925    2.37801949709994
H         -10.45751586140978   -1.28937232450543    1.98662621005058
H          -7.69076792329854   -2.43935729686580    2.66634566262398
H         -10.45615071312389   -3.77229939373996    2.48333515082919
H         -10.30714553085916   -6.33755899805128    3.06512019182219
H          -8.55160649722804   -8.15703786898231    3.58010392092544
H          -6.42856813167565   -9.32994413731552    4.20380023583314
H          -3.94937954396379  -10.02484018442869    4.31427786755059
H          -1.57397959681958   -8.94567435203504    4.17710921817469
H           1.62077446269050   -5.00662320166530    2.82295416017278
H           0.79017446787250   -3.91576421803052    0.69625601060971
H          -0.93398213988304   -3.58259194635701    0.88267030052292
H          -0.40611872344241   -4.82471057855790   -0.24533652737160
H          -2.67953578239309   -7.67376992116341    1.02196839843315
H          -2.82447315244319   -4.72039136535741    0.21610805097147
H          -4.11699064457989   -7.31772216647339   -0.80657680658807
H          -4.88188472367978   -4.37141478711454   -1.11379821723804
H          -5.76738139578572   -6.98018039899214   -2.46673496292160
H          -9.33286029280585   -6.15284306735480   -6.15066702645001
H          -9.84332693292829   -2.21018996022117   -3.10459754434619
H         -11.25828560678315   -4.86128945315830   -7.72607922434460
