124
 SCF done       -229.521007372967          0.000820203085
C         -14.11353357958388  -11.02100609594418   14.27701981363679
C         -14.88304335516621  -11.79961576013058   13.43850108442079
C         -15.09561093700060  -13.17925242895189   13.61649477594766
N         -15.30621178676513  -14.30628583421583   13.69967508261758
C         -15.57954517659771  -11.34615193479056   12.30236239124826
N         -16.17895138431687  -11.06975164987547   11.36059311657020
C         -13.42045755947880  -11.51137809057740   15.46909909048149
C         -12.78197074968086  -10.41750383483322   16.10067293081466
C         -12.04239759224693  -10.55206253121863   17.24849726945221
C         -11.92083654882045  -11.83294260715012   17.80037307373802
C         -12.55832994840671  -12.91951774378835   17.16098934679969
C         -13.31148049211458  -12.78143352910209   15.99995745035271
S         -12.27373167906179  -14.41361460398504   18.00383440528336
C         -11.31367951265808  -13.56605361046036   19.18706945436218
C         -11.21139444874955  -12.23483724059091   18.96604533256530
Br        -10.53633160905108  -14.52029740466249   20.60404568006649
C         -13.04105050155848   -9.18790367850756   15.31833915921717
O         -12.64117176389870   -8.07088096443924   15.59087774903083
C         -13.85790095964289   -9.61249589889860   14.16978806097342
C         -14.26408893284776   -8.77409099510778   13.14182297459268
C         -13.99151047394582   -7.41890396258734   13.06797201551993
C         -14.36577358073154   -6.62583186199220   11.99049334096942
C         -14.10763241061459   -5.25399800918943   11.82497401168375
C         -14.56128274076899   -4.73945276108111   10.63700976563685
C         -15.19802347752353   -5.68693567031928    9.82293511014326
S         -15.22283960961900   -7.24929032196022   10.60025751254368
C         -15.73257733766877   -5.50350062778432    8.54556010617902
C         -15.72343356684560   -4.34172226808342    7.76164568709809
C         -16.28628188260355   -4.51236103619880    6.51985605836669
C         -16.76716028356593   -5.80674062320465    6.28456682303690
S         -16.49397096543669   -6.81411916225780    7.68849233422416
C         -17.35238781782488   -6.29169908449513    5.11584629469425
C         -17.82799973677965   -7.57333572463997    4.96816413107281
C         -18.34129664738963   -8.10984704805551    3.79004381665928
C         -18.82958958321419   -9.41655293830053    3.62352147031738
C         -19.21879155612104   -9.70807130917428    2.34362235422389
C         -19.04273020150820   -8.63988357387536    1.44599869238243
S         -18.40513325122967   -7.23944316002966    2.27759279942642
C         -19.25563454327766   -8.64001476137221    0.07482294683228
C         -19.69918477374687   -9.72265153219776   -0.72184691532360
C         -19.71909286068196   -9.45742417763693   -2.05388106823086
C         -19.28039576561396   -8.14410219521383   -2.38888794588923
S         -18.90468645136896   -7.24649988731062   -0.91196478643683
C         -19.17773433845230   -7.60500199795599   -3.63054277414288
C         -18.71562119748875   -6.25395878075107   -3.89385321907088
C         -19.54886468460318   -5.39623522450209   -4.62806059001235
C         -19.26074722495250   -4.05999047227356   -4.80146727964018
C         -18.11085283434100   -3.50821398098424   -4.24328638799037
C         -17.25173863810085   -4.34053791685589   -3.56531533033652
C         -17.51911980860726   -5.71032067698385   -3.41744136277290
N         -16.41908587043755   -6.33414634642587   -2.84774487311832
C         -16.16719497423691   -7.74726442915707   -2.76058118006502
C         -15.43682274622905   -5.43037211231984   -2.53305210898009
O         -14.35298045552539   -5.71008721637495   -2.08530022084440
C         -15.95615089231749   -4.03731071597794   -2.87908907330230
C         -16.18229317362337   -3.22659267279108   -1.57912696814813
C         -17.29567334724329   -3.90960419649010   -0.78330973705266
O         -17.25713915457257   -4.99416539596285   -0.25277909128335
N         -18.38677936671191   -3.08598271764382   -0.80769191561268
C         -19.65262172611851   -3.43531640395940   -0.22339009596862
C         -18.10706375933751   -1.89069884478689   -1.45081701007650
C         -18.94035643739052   -0.82159366948099   -1.69468470867880
C         -18.41248385733770    0.30460172199921   -2.34484955918869
C         -17.07098228728596    0.30882370272834   -2.73998326807762
C         -16.25082454036631   -0.78709656456866   -2.52160780151556
C         -16.77116490550368   -1.88785471053954   -1.87778443475380
C         -19.29237908890003    1.42549124087505   -2.58986781635160
C         -18.90357657854772    2.69328231123978   -2.84129200640102
C         -19.76673689515685    3.78210247416679   -3.15002205541436
C         -21.09290223751739    3.98317972685964   -2.92091386628697
C         -22.09300249119556    3.33035566694774   -2.10176607241309
C         -21.88735357558724    2.65900022480415   -0.92319588395795
C         -22.91985605984172    2.10127964159126   -0.14271359019766
N         -23.71333690345560    1.59978815439444    0.51870195041601
C         -20.62616633881231    2.48833387396246   -0.31971545598113
N         -19.62810188630047    2.33419480583368    0.22597416321587
C         -23.40077209408133    3.71765262319675   -2.62271470215888
C         -23.22634879949685    4.75623449104170   -3.57163115498162
C         -21.78547792254493    5.02784212469724   -3.73080729296046
O         -21.26061280624815    5.88065770574231   -4.40823200693015
C         -24.28179789839149    5.35368968919547   -4.21652267725155
C         -25.57018353125144    4.89571042804675   -3.92152301663566
C         -25.73370268323742    3.84899655653980   -2.98236773090827
C         -24.66696398088582    3.25170901005397   -2.32214574825522
S         -27.40728016705415    3.42919875985854   -2.77925836463474
C         -27.85913881096072    4.65000317126120   -3.94006700639042
C         -26.81194512300613    5.33745922031880   -4.45454706062206
Br        -29.66895389112565    4.89757147110300   -4.36476288114236
H         -11.56817743511957   -9.69805081259051   17.70632496416484
H         -13.77586261854552  -13.64336617241740   15.55123990655796
H         -10.65871297829231  -11.56196455310895   19.59610044093991
H         -14.82282496596224   -9.20775495828152   12.32136076119899
H         -13.44818686096063   -6.94625312390642   13.87340506460305
H         -13.59144548267681   -4.68429440965226   12.57691354566618
H         -14.44660841033641   -3.71190321001521   10.34201426770509
H         -15.30134125753272   -3.41658759666062    8.10993538976339
H         -16.35963818106569   -3.73705884166112    5.77774031513413
H         -17.41611975823374   -5.60916067703034    4.27756436773357
H         -17.79154186299838   -8.23750685889564    5.82289802180768
H         -18.87307143280139  -10.11083807097743    4.44381314234260
H         -19.60865922771900  -10.66070231341021    2.03420042123522
H         -19.98072364671304  -10.66581777345419   -0.28939916438870
H         -20.01218870332560  -10.15924486269620   -2.81427717962880
H         -19.57343601153812   -8.16738741425081   -4.46638061530523
H         -20.46255140149257   -5.80367673015252   -5.03527562140093
H         -19.93646635605559   -3.43401403656441   -5.36351263361761
H         -17.88976402479165   -2.45880899041442   -4.36179556133724
H         -16.54451034483218   -8.25176153496093   -3.65047285055246
H         -16.62574918637947   -8.18420006306124   -1.87286184875893
H         -15.08656335615472   -7.87497847142827   -2.68754347092572
H         -15.23767659209823   -3.50524731705293   -3.50720117879981
H         -15.24655051426773   -3.20028788926090   -1.01629719124373
H         -19.52709532649440   -4.39614025694122    0.27473606819315
H         -20.41783469487700   -3.52670944403222   -0.99737874043020
H         -19.95988495252307   -2.68215169884853    0.50396539020100
H         -19.97143797660993   -0.82952932520326   -1.37720809437245
H         -16.67140296005589    1.16558458485296   -3.25803800089350
H         -15.22409384339655   -0.77625129772977   -2.85456657187663
H         -20.34913787867751    1.18960594538869   -2.58376010590364
H         -17.84757191361326    2.92092541417379   -2.88519715874083
H         -19.31071652973971    4.57532800787970   -3.73770638464517
H         -24.11923504781839    6.14805321685109   -4.92785407622656
H         -24.84087566429786    2.45397257023363   -1.61908236045229
H         -26.90892858164971    6.12324334564846   -5.18119679110902
