96
 SCF done       -185.804086051455          0.000792700807
C          -8.18871884261199   -1.55514032667539   -4.86880718855806
C          -7.25372430902056   -2.51369513920592   -4.56613176463002
C          -7.29285011310992   -3.83058081203337   -5.06407120891182
N          -7.28859420366144   -4.91518598291722   -5.44165809130486
C          -6.09412373507475   -2.27618894974900   -3.79831784022774
N          -5.10295454691687   -2.12850016811128   -3.23752134020564
C          -9.28726317097859   -1.69766631748069   -5.81966092848557
C          -9.87820558775817   -0.42428093943170   -6.01566808342770
C         -10.93784361575457   -0.22318024691962   -6.86503034964508
C         -11.44598537789562   -1.33475562988428   -7.54707490312233
C         -10.85308270146932   -2.60189806573961   -7.34081034689824
C          -9.77409854620403   -2.80387338025010   -6.48708522107335
S         -11.64254665167772   -3.83653265080260   -8.27439690906538
C         -12.74357344738805   -2.64886978093819   -8.92042862657024
C         -12.53240685284961   -1.39236620552635   -8.46302457414676
Br        -14.06932765930114   -3.18003138139052  -10.13668285523295
C          -9.18255694904371    0.56505219497650   -5.16957040591854
O          -9.40362078723971    1.76471381652602   -5.12716699915206
C          -8.20663750635142   -0.19311951046039   -4.38862084398112
C          -7.56062292742143    0.24835761103488   -3.25303864470029
C          -7.49851266089102    1.52436259165740   -2.70150483846684
S          -7.99499162125644    2.98899586605474   -3.50008313532580
C          -7.44398685517995    3.99190431539633   -2.19004924082167
C          -6.81708906533658    3.21308072855334   -1.17767824432553
C          -6.90795664376528    1.82137981310134   -1.44072563102013
C          -6.42478491026778    0.91509393808773   -0.46689096009915
C          -6.67824845228574   -0.47482775201718   -0.50012950177454
N          -6.92263155213189   -1.59370447206911   -0.42339474881694
C          -5.73392989347779    1.40279514434473    0.63328492760392
C          -5.50563822705252    2.76909287959209    0.78350330937696
C          -6.05747858695881    3.67232125348275   -0.09376507955557
C          -7.77066763440084    5.34868909059221   -2.23777161158332
C          -8.07125672177912    6.20525549805668   -1.19176568192265
C          -8.50746362647124    7.54110256141615   -1.33279314980925
C          -8.98455633890502    8.10558130857540   -0.17968902134623
C          -8.94532633596220    7.24157250641604    0.92551422895127
S          -8.23915420321902    5.70758331205947    0.47859773651443
C          -9.43011064671529    7.40286086346422    2.22012263411668
C         -10.19061115546791    8.43649349310600    2.78899493187915
C         -10.61565101453797    8.14712327269273    4.05839288330314
C         -10.21419223922009    6.87992998918458    4.54085020895489
S          -9.16306730046442    6.12021181800849    3.37385095202879
C         -10.74178149968887    6.27915663117078    5.67160992572696
C         -10.61549926789687    4.96296603583900    6.13028397768231
C          -9.63526097132574    4.02135248411444    5.71103270135315
C          -9.71785752129258    2.61240831051943    6.02416041256531
N          -8.76821794740472    1.79326566122896    5.54725648756478
C          -7.76124759160151    2.27680813977512    4.85840232893171
C          -7.64323407673818    3.67505568158552    4.61530376643573
N          -8.59389882850000    4.48842609939051    5.03183621886646
C          -6.53045096470155    4.21276929230057    3.93476705491023
N          -5.60671628457034    4.61474751832137    3.38597129905901
C          -6.78659545793368    1.39474027696321    4.33206728539693
N          -5.98259786810031    0.72367979227529    3.86617927067006
C         -10.77121308579460    2.07543317195532    6.80843512962617
C         -11.62604151728246    3.04527320317795    7.40136754612454
C         -11.54702918067790    4.44995149564141    7.07645986407485
N         -12.46287952180261    5.16809850893213    7.71317404722532
S         -13.33778024496859    4.19173706895897    8.65044524569884
N         -12.60472414482753    2.80924724603817    8.27399160813280
C         -10.99787141759671    0.67346269497370    6.95714349072844
C         -10.34275751283679   -0.37425130846384    6.23184375813771
C         -10.89158153370165   -1.59169756111997    6.60273660432351
C         -10.61761218392078   -2.89919273037431    6.16730331927600
C         -11.36950494630784   -3.91607275469003    6.70495978359161
C         -11.36651543874290   -5.31934239163358    6.47712095535561
C         -12.34743586047861   -5.90766327847179    7.26874186240967
C         -12.98432549412190   -4.87862729200784    8.01662849657269
C         -12.40487377114067   -3.65343616602783    7.68987806667158
C         -12.67275400247998   -2.35229482729967    8.12998718696556
C         -11.92258485389025   -1.32649361696556    7.58877591782011
C         -11.95983973674097    0.07330252250623    7.78324312005798
C         -12.64469040696983   -7.31926871788462    7.29640472513122
C         -13.58902143387161   -7.89696980212019    8.03460900372692
H         -11.36579529306208    0.75810598672045   -6.99784906692239
H          -9.35760505613650   -3.78907452846246   -6.35898526771693
H         -13.11789542606598   -0.54026253296525   -8.75660819592932
H          -7.05074889360147   -0.51118852272039   -2.67471373644337
H          -5.36769938166341    0.71091439113271    1.37670844352916
H          -4.91586479853541    3.12030805846127    1.61481533742153
H          -5.88235421371870    4.72707513600704    0.03794859674953
H          -7.97125710113644    5.74395585052501   -3.22708884119199
H          -8.47552792237411    8.04335977133088   -2.28351926266280
H          -9.36952398093761    9.10710726629475   -0.10910091157549
H         -10.43566618352412    9.34011831419210    2.25929793127242
H         -11.24204395190726    8.79544499761048    4.64612922555730
H         -11.46365705417458    6.87274000498823    6.22059659087557
H          -9.56375238083689   -0.23117751998512    5.50895450670996
H          -9.84659599120852   -3.08482878326564    5.43323459915774
H         -10.71201466858726   -5.83442928023985    5.79778723951103
H         -13.78441037497041   -5.02189721794155    8.71932590822933
H         -13.44728463193047   -2.16139582297782    8.85931177061724
H         -12.61534625206269    0.59698480971210    8.45150407540214
H         -12.02801749457303   -7.92652909043018    6.64566711160842
H         -14.22765874957891   -7.33518084401705    8.69445332836132
H         -13.75626241418089   -8.95937798711348    8.00178631451387
