96
 SCF done       -188.114883817074          0.000561411311
C          -3.74249329284096   -1.51326183965593    3.00502857204406
C          -4.43525650679977   -2.24972411330297    3.93458475835090
C          -3.88597710361120   -3.32608285056921    4.65720147188351
N          -3.47952373824755   -4.20279576118074    5.27750936749653
C          -5.79756083307145   -2.04520243576668    4.23219311423241
N          -6.91541637959081   -1.94707777060177    4.47734789980968
C          -2.38462236164832   -1.76676784499814    2.53926644938482
C          -2.10638128288152   -0.89145046520329    1.46013278429060
C          -0.90323386155748   -0.89303287031436    0.79894752030459
C           0.07270706657474   -1.80230965619517    1.22315613280800
C          -0.21298507164091   -2.66854616563477    2.30444054966681
C          -1.43158691553575   -2.66746182994943    2.97333745481942
S           1.13493903984922   -3.70259425696850    2.66857927674368
C           2.05047598545619   -2.96928994051830    1.37858685223668
C           1.38348505826707   -1.99951100074698    0.70899185741962
Br          3.80078896905100   -3.55191749919260    1.03917122489858
C          -3.28015080092285   -0.02821125194656    1.21091515374102
O          -3.36421160673767    0.86118815629431    0.38636632634692
C          -4.27169702510011   -0.41358910691778    2.23732831618474
C          -5.37150567783575    0.34948460350665    2.55624728233756
C          -5.91001975088938    1.36008037745355    1.74515730921161
S          -6.53350396016333    2.79734949563428    2.52696898716448
C          -6.64881002280995    3.65495687464820    1.01278966280596
C          -6.32959151762233    2.80658227111008   -0.05499651069873
C          -5.97150036563951    1.49895784128138    0.35185984978596
O          -5.89569120787876    0.52612249015995   -0.57552912398123
C          -6.03006363266921   -0.82321249060379   -0.20696800703308
O          -6.41823166438510    3.25361421448972   -1.32147780175684
C          -5.63836607451808    2.63071533846533   -2.32918745545249
C          -7.04926425446123    4.99805730343989    1.06014698013089
C          -7.14154531758459    5.95234941559177    0.07325224507543
C          -7.57289460920915    7.28233492450140    0.32309842445399
C          -7.59271028899491    8.08677100058785   -0.77486688015509
C          -7.16709838215549    7.43324156805710   -1.95161129876048
S          -6.74646964083129    5.77084418860415   -1.61949598957374
C          -7.07555392489350    7.95257466470661   -3.23195152477829
C          -7.37385256541719    9.25693204894168   -3.67770777899555
C          -7.18627296184663    9.43471142123906   -5.01620677987357
C          -6.72270651704059    8.28147349584219   -5.69574370138752
S          -6.54133703414065    6.95657392764579   -4.57006179189298
C          -6.44990523612763    8.19661764549374   -7.04138983210933
C          -5.95399450282270    7.08793851612735   -7.73573742351632
S          -5.51446503554495    5.58536747802973   -6.99622743918404
C          -5.01923603095149    4.89722455633534   -8.52365905815410
C          -5.13774002982074    5.85067885188332   -9.55794966067774
C          -5.70015354958799    7.05619293880732   -9.11784897350764
O          -6.02520193100347    8.11834463229720   -9.92739452068800
C          -7.39514271385652    8.13299310696953  -10.31207694758268
O          -4.64341718469141    5.54369845115095  -10.76856725394674
C          -4.64974343550614    6.51966197942046  -11.79370836122949
C          -4.55260899895139    3.58294166990939   -8.53076972357952
C          -4.30554842827542    2.69840666742116   -9.55463774717525
C          -4.68411555823569    2.64018315802648  -10.93577333221759
C          -5.77861016396017    3.23411441796071  -11.52282145710427
C          -6.09003675041132    3.14467766648950  -12.89184497551898
N          -6.38141983039918    3.14471802302682  -14.00338868285745
C          -6.75083906347355    3.96310763881924  -10.81877316408197
N          -7.57158555937663    4.57025298661912  -10.29008727850356
C          -3.83343799712522    1.64260283350703  -11.58568724229525
C          -3.09214427269484    0.96204508752632  -10.58872423374673
C          -3.40923669626481    1.55034227518880   -9.27069584697825
O          -3.00263810509998    1.19425477591844   -8.18580897514290
C          -2.22827265834001   -0.06374009917288  -10.88130320647095
C          -2.07844347037833   -0.42773647102102  -12.22461519223708
C          -2.81276408812129    0.26637828907822  -13.21324057296462
C          -3.69626567719008    1.29852932996202  -12.91529748502355
S          -2.47009843006026   -0.33843413161563  -14.80603858850388
C          -1.36266910279278   -1.50343332075162  -14.12960342373344
C          -1.25250623646055   -1.44292081175823  -12.78193347419259
Br         -0.45665609917600   -2.68842362396045  -15.26774270990956
H          -0.71897902979453   -0.21659271733224   -0.02090124362040
H          -1.60284285029041   -3.34148404855949    3.79615861212794
H           1.79717848749511   -1.44429141878217   -0.11293290593218
H          -5.78281507263475    0.27486636002939    3.55565536989598
H          -6.39243078347989   -1.33531173872105   -1.09861694616712
H          -6.74378971188273   -0.94958659061448    0.61218950468424
H          -5.07113785035620   -1.26082490002620    0.08926187349670
H          -5.54054499582444    3.37497625842848   -3.11927260300015
H          -6.14111964775517    1.74387627926737   -2.71837964939570
H          -4.65397433976821    2.35234661383782   -1.95057897870210
H          -7.31074424063012    5.34479757371355    2.05340070473836
H          -7.86115426040837    7.59647397854659    1.31084116836219
H          -7.90334070108428    9.11594928501191   -0.76675123181004
H          -7.71834964238643   10.02406008502738   -3.00795630552852
H          -7.36269507323384   10.35820423979551   -5.53868216301558
H          -6.60741062644940    9.08937249626891   -7.63280556405716
H          -7.49366690670676    8.94045672839209  -11.03469874284869
H          -8.04570699148356    8.32084440650832   -9.45321392125365
H          -7.68635172802565    7.18184524305261  -10.76800946482575
H          -4.04746733176139    6.09629750929545  -12.59670676244155
H          -5.66284571537279    6.70172454004875  -12.15996211497444
H          -4.21219373601834    7.45887492008705  -11.45213814305533
H          -4.28050152217310    3.19470665380981   -7.55215359497275
H          -1.68377454526783   -0.57124781949314  -10.10055680009969
H          -4.23298912322242    1.79880434733780  -13.70428823577006
H          -0.61596519097551   -2.08610926740567  -12.20213625834341
