108
 SCF done       -189.788951362246          0.000459761062
C          -9.69084997985243   -2.86141847857791   -0.81216631692789
C          -8.94024840009960   -3.48558563087989   -1.77828400677693
C          -9.05230556608435   -4.85257039960361   -2.10656387958849
N          -9.08916576447087   -5.95651576850173   -2.42020214695107
C          -7.96498531291366   -2.87326761947776   -2.59076399603376
N          -7.16129181036917   -2.45029618150412   -3.29585541502761
C         -10.71797765864798   -3.50827179304533   -0.00060648110058
C         -11.29691673727212   -2.53954374617395    0.85540962142812
C         -12.30269638360763   -2.83618994988960    1.74165726782479
C         -12.76271984237712   -4.15674557560996    1.78676221338257
C         -12.17867860096315   -5.11903048956485    0.92966187035825
C         -11.16015369110409   -4.81739932716952    0.03343676637207
S         -12.89551672639313   -6.68700092209216    1.14690902734088
C         -13.95611491840417   -6.03691316356654    2.36845319277221
C         -13.78354253388563   -4.71442635805448    2.60395857123628
Br        -15.19120655794206   -7.16462421505928    3.21746274036306
C         -10.64823517754735   -1.23662081451289    0.61802034887562
O         -10.90838744234491   -0.19096576070281    1.18661702420681
C          -9.64203195990694   -1.46634563679550   -0.42287533679582
C          -8.78236080127270   -0.52928973546318   -0.94254110434778
C          -8.65059324464204    0.83889784010653   -0.68229092057490
S          -9.60235465596065    1.76991629917931    0.44346088995838
C          -8.74894625035505    3.21962693666293    0.02913531794604
C          -7.75352808878472    2.98970183078966   -0.92222884856084
C          -7.70283415612501    1.65693102416176   -1.32456818325158
C          -6.70659361732475    1.14986406978222   -2.31942466478877
C          -6.02109018034363    2.29626730357663   -3.05748716159875
C          -5.56146507903663    3.37267210074745   -2.06505532913118
N          -4.73822665438608    4.41985440890015   -2.64431537032443
C          -6.79724907547451    4.01923369671568   -1.43343626769456
C          -9.14109292536885    4.41100958190081    0.70614864799148
C          -8.88465044484409    5.68898411726475    0.35239588160905
C          -9.33294942727233    6.79577827340339    1.14408051052551
C          -9.20182525159433    8.09854666580818    0.84464271958869
C          -8.59922595784156    8.64209322011606   -0.41105766095810
C          -9.69003472352762    9.15253617680978    1.80767796802942
N         -10.86339021437126    9.83092558166720    1.29216471952694
C         -11.96173281342895    9.17456157585419    0.87846945904085
C         -13.14306821987877    9.77477729731955    0.56338436989673
C         -14.26585008170338    9.06192108001962    0.11715214842224
C         -15.48582317338026    9.62244167355062   -0.16632693258468
C         -16.65787562616188    8.95553618633306   -0.58985746804128
C         -17.73302978836817    9.77297083222068   -0.77355206603367
C         -17.46875177603336   11.13443276560436   -0.50780233392028
S         -15.80977359899661   11.34890525229994   -0.02104879400226
C         -18.35239146382971   12.19954361404386   -0.59023821473604
C         -19.71277002342210   12.16784286635641   -0.94755286312038
C         -20.31803269525616   13.39296145542877   -0.91634430253310
C         -19.46333437346862   14.44889067131735   -0.54121611139865
S         -17.86173212064554   13.83962530128632   -0.21552377970950
C         -19.81196166442855   15.78397501017551   -0.41414798080548
C         -18.91565012581646   16.78946083470847   -0.09313577283398
C         -19.18640396047562   18.13395949239507    0.09498105852985
C         -18.10326981274351   19.12263228274356   -0.05849237510564
O         -16.91182524741596   18.90060798817818   -0.14803152944927
C         -18.77824353734579   20.43739324452687   -0.13033335656127
C         -18.24411085009053   21.66948285229768   -0.36466579671365
C         -19.10132258997657   22.79280196724036   -0.42861533183636
C         -20.50203497266548   22.61008284045929   -0.24786135225197
C         -21.35181394391413   23.73048201951451   -0.31954775747369
C         -20.81618037654674   24.96529617040447   -0.55824167948143
C         -19.44215963940808   25.16627114786521   -0.73804918239169
C         -18.60309065333626   24.08807521077118   -0.67203237740724
F         -21.62890682734504   26.03956579339373   -0.62676101396623
C         -21.02637851941226   21.31897388846023    0.00287199865956
C         -20.17639919585522   20.25010795114115    0.06436022710998
C         -20.41764767285697   18.82858852017030    0.32423120124098
C         -21.57088176342783   18.32068330728236    0.88444394053875
C         -21.69141347102681   17.02320699712113    1.41538472124882
N         -21.83998030795059   15.99611795664653    1.90954495416899
C         -22.73719555353620   19.07585789768448    1.10152851072875
N         -23.72719461386788   19.63227775911904    1.28039893990538
H         -12.72243092289207   -2.07414453510346    2.37939776455680
H         -10.74957615087857   -5.58808572459115   -0.59688473981610
H         -14.35198066366766   -4.15395522808699    3.32347437721281
H          -8.08126722576450   -0.89337758207822   -1.68077265887604
H          -7.18426670215291    0.48547249250118   -3.04302797270279
H          -5.95321931891623    0.55786970830149   -1.78888257801868
H          -6.71570559432813    2.74427268840005   -3.77327507864138
H          -5.16657373684377    1.90722082315564   -3.61537591904858
H          -4.96600082166341    2.89773384611831   -1.27631287357708
H          -5.21408840761354    4.84461992353326   -3.43428823992074
H          -3.86229115924492    4.03819795305417   -2.98311111229162
H          -7.29024240573804    4.63469431872886   -2.19377452228196
H          -6.48271584372748    4.67850922233157   -0.62285194039258
H          -9.74928185523271    4.23709202759542    1.58652732605793
H          -8.34061911603424    5.90662931643602   -0.55046790862111
H          -9.80881005283030    6.52978021918387    2.08087729762859
H          -8.60900117154468    7.91576680244373   -1.21692262438459
H          -7.56542427521952    8.93960458303843   -0.22996953144282
H          -9.14823969995430    9.52515923566517   -0.73342340790727
H          -8.90932898055866    9.90466412471632    1.94780501021377
H          -9.90978424927959    8.69803040350977    2.78301960511881
H         -10.95343672282122   10.81976763041704    1.47000936691630
H         -11.84570114503897    8.10371631967224    0.77873612032323
H         -13.24010387341474   10.84696843673685    0.67119025400389
H         -14.17426442938614    7.98982665097114   -0.00062390460102
H         -16.67146269251872    7.89043490910773   -0.74170249913897
H         -18.70317872582964    9.43482383758261   -1.08943449431618
H         -20.21373067649327   11.25464601574450   -1.21444289784583
H         -21.35408822250005   13.56643904410663   -1.14594134095165
H         -20.84574709084659   16.02702569711816   -0.61319700155036
H         -17.86053995792732   16.53168956031455   -0.07519656154657
H         -17.17979706836341   21.78960925646999   -0.50216247274238
H         -22.41562115565166   23.61313268971804   -0.18319923195144
H         -19.07628892025257   26.16367756930253   -0.92410301628264
H         -17.53958823287907   24.21741992173814   -0.80761713339428
H         -22.09171586507264   21.21112857675958    0.13091917413288
