116
 SCF done       -193.711815696659          0.000846997602
C          -5.54703564597597   -3.37664901630913   -2.36034001059447
C          -6.64043113386038   -4.07502303632559   -1.91756978114164
C          -6.69937845740033   -5.48147651247790   -1.82598341166793
N          -6.80709395304519   -6.62006231115993   -1.72693756387234
C          -7.85155610632480   -3.49528752869912   -1.48636120756267
N          -8.86220811062263   -3.09181948001925   -1.11843216664020
C          -4.29444613056610   -3.96175972688000   -2.82290578597877
C          -3.41516716156296   -2.92002311765363   -3.20820761796567
C          -2.14674784071787   -3.15619494398218   -3.67933228668258
C          -1.72756479491112   -4.48610611561789   -3.78670012571617
C          -2.61324336920137   -5.52152248909691   -3.40204521670147
C          -3.89289464103954   -5.28215661456971   -2.91835923106562
S          -1.89175334949807   -7.08889478326271   -3.60857807011666
C          -0.43165693635352   -6.34264491919527   -4.20147652460833
C          -0.47930485421007   -4.98965655973614   -4.24352910108670
Br          1.01852124646073   -7.41946719859812   -4.70599825536111
C          -4.07266259837788   -1.61657023970197   -2.99151933827371
O          -3.55571539301271   -0.52452646156358   -3.07518791453569
C          -5.43730159283284   -1.93572436686230   -2.50145354060455
C          -6.33964477648348   -0.99754817525668   -2.10629424935252
C          -6.31566980513490    0.38043602003858   -2.45803954541205
N          -6.73233977626504    1.34786080687747   -1.58744848728858
C          -6.99898976988790    1.19802429767684   -0.18287849564393
C          -5.72927849950584    0.88289726368961    0.60298416237826
N          -6.73486013269843    2.53833412631600   -2.14739804935039
C          -6.39448745189781    2.37598122256534   -3.42202910128062
C          -6.09938088040197    1.02776776182528   -3.68578962031061
C          -5.81607832698162    0.39928525521603   -5.00874472967141
C          -4.47373700540909    0.82052795233094   -5.60851774393857
C          -6.32968208116234    3.54364616616309   -4.34313989886193
C          -4.98469869367876    4.27618954483713   -4.20296303329781
C          -4.86183643602721    5.37725554736635   -5.19819579444913
C          -4.43574239394806    6.61119788566110   -4.92105438687361
C          -4.31339069731470    7.66453504511700   -5.88736841903415
S          -4.90787912282217    7.47482299576223   -7.50710791145063
C          -4.39332114185040    9.08386491249925   -7.94775548391960
C          -3.80362833519483    9.71971082711764   -6.87132858805293
C          -3.75802999174382    8.91464586383765   -5.71324509373144
C          -3.17422625807324    9.39528210845071   -4.41874170265679
C          -2.33069738241937   10.64872514681952   -4.62892700971520
C          -3.10759627049155   11.67327059421836   -5.46724215739867
N          -2.48095745168388   12.98144124500877   -5.55656277867584
C          -3.28902267661725   11.12337086420016   -6.88389121776741
C          -4.67125294597358    9.50575776174454   -9.28165856411173
C          -4.14871272458740   10.55410637145892   -9.95134801072219
C          -4.56781946506171   10.86692385094650  -11.28564906677171
C          -4.11022866442026   11.84864072189787  -12.07855683594235
C          -3.00177788889736   12.79780813513711  -11.75275969961408
C          -4.70513053030539   12.03360376966738  -13.45567670708755
N          -3.72918755697033   11.75908725374953  -14.48430809219840
C          -3.18167820758800   12.67075013686493  -15.28442204021954
C          -2.12488131310480   12.42875708838749  -16.11689352935075
C          -1.60178798414247   13.41149479400238  -16.96195092735261
C          -0.48695745654649   13.32780914207488  -17.76085611956058
C           0.59466744554098   12.38093265121807  -17.79379033416129
C           1.06988223100773   11.62559026907006  -16.74567948338882
C           2.16907792767577   10.75129121921581  -16.84172928732267
N           3.04312105671910   10.00578363251693  -16.86714889974833
C           0.58764277633775   11.70872526035716  -15.42641108400390
N           0.25742551705340   11.76301465978619  -14.32633661035849
C           1.26304805601233   12.52766514751794  -19.08686990213693
C           0.73754695576657   13.67071555225164  -19.73843320400660
C          -0.33430169554259   14.25382029879622  -18.89952234379829
O          -0.98058191737037   15.25615160356821  -19.12348830322801
C           1.18209187045155   14.08866497460635  -20.96763367748773
C           2.18412448947147   13.33541147764137  -21.59060325371199
C           2.69366984011608   12.19045727262564  -20.93687697092134
C           2.25170553909598   11.77306814403056  -19.68643551969385
S           3.91227677678492   11.39863108087837  -21.89143716953583
C           3.72380090656358   12.60394192382210  -23.13714178247765
C           2.79744499731388   13.54977906208238  -22.85612060142120
Br          4.76523189673903   12.49603482569361  -24.69455456841771
H          -1.49879812719627   -2.34037686204725   -3.95916135293956
H          -4.52652939610566   -6.10481189132409   -2.63226500277319
H           0.33212511475863   -4.37095718172556   -4.58084913800221
H          -7.16847183765179   -1.30042520680195   -1.47725357173320
H          -7.74045092953739    0.40501009947537   -0.03901964436833
H          -7.42457879552012    2.14709151662674    0.14859412462452
H          -5.29223669444670   -0.05456658463892    0.26548520914875
H          -5.96040463486756    0.79935899183156    1.66111601975774
H          -4.99710041293009    1.67442036078482    0.46443588673047
H          -6.61804366845341    0.67194557289117   -5.70301177529801
H          -5.83197738846544   -0.68731133334471   -4.89308010369193
H          -4.48205716903832    1.87159028013520   -5.88030971784073
H          -4.26993806486907    0.23565139473008   -6.50291953548721
H          -3.67596243325630    0.65110557728343   -4.89068623672754
H          -7.13544211794936    4.23607133011446   -4.09436906243858
H          -6.46180060453810    3.20685155696026   -5.37256027944991
H          -4.17576408029243    3.55542068438390   -4.36132271230787
H          -4.88878650287324    4.66430019489328   -3.18786932291747
H          -5.13733448340595    5.12971061709016   -6.21610422694903
H          -4.14966465281295    6.86749804583847   -3.90960916283832
H          -2.56530772095613    8.60828100410102   -3.96763100672712
H          -3.99069590769964    9.61943623994096   -3.72346914619026
H          -1.40404576182107   10.38989616352906   -5.14873443376875
H          -2.06576085122641   11.07933954883677   -3.65959154224638
H          -4.09474046202542   11.82447477511491   -5.01335818920201
H          -1.54104168306133   12.89491473622514   -5.93085070002712
H          -2.40816763132392   13.40486799816517   -4.63802593149510
H          -2.31873425996151   11.15240384866813   -7.39237011476564
H          -3.97222115819396   11.77170255596138   -7.43569881653394
H          -5.37846698777325    8.87169217738298   -9.80489791613719
H          -3.39405568315776   11.17293949048639   -9.49820076164001
H          -5.36298866048269   10.23663262493068  -11.66869979929772
H          -2.69339928563481   12.71837145022848  -10.71648633380188
H          -3.31591878468739   13.82408242387549  -11.94249344211603
H          -2.13363440324560   12.59737211255538  -12.38286694194949
H          -5.05133937439231   13.06319005804644  -13.58426627271498
H          -5.55908487434204   11.36064148076709  -13.58948710989063
H          -3.28733324300238   10.85046989205855  -14.43872204732504
H          -3.62593012348718   13.65754317474827  -15.25075252226677
H          -1.68886039020239   11.44094092601135  -16.11942940878462
H          -2.17388330602323   14.32623242891684  -17.07749009828885
H           0.76878037836090   14.96683078077408  -21.43845820330574
H           2.66692910998525   10.88998616692285  -19.22957475849563
H           2.55313419244345   14.36496284067242  -23.51254582307308
