93
 SCF done       -187.282186021449          0.000477265400
C          -2.17637674399711   -4.63706295417025   -1.52977791408382
C          -2.03943719727350   -4.61410831044701   -0.16649595079878
C          -2.00871968246047   -5.76692793790915    0.64713722691730
N          -1.96689857866471   -6.66425758660142    1.36122690547766
C          -1.91185534321488   -3.44864373205904    0.61853293327845
N          -1.80986671058889   -2.54830037890480    1.32356198399362
C          -2.35724499411372   -5.82925115416452   -2.34729103092745
C          -2.49192581173145   -5.44215312448374   -3.70396170012912
C          -2.68288118247669   -6.34881590763939   -4.71839329351997
C          -2.75558677985176   -7.70319887470465   -4.37805937648004
C          -2.61895578273117   -8.08195056714315   -3.01989175794778
C          -2.41822220835046   -7.16594159702884   -1.99551160935180
S          -2.73562357671865   -9.80349120747002   -2.82182454987577
C          -2.96536378904319   -9.98994605106624   -4.54026687038492
C          -2.95492106657431   -8.82369632034780   -5.22939439305170
Br         -3.19526772451380  -11.70454392666628   -5.26133240678269
C          -2.38464554515746   -3.97773225742109   -3.81424707024365
O          -2.29720252535781   -3.33240864968801   -4.83272995637446
C          -2.23644687890841   -3.48414151416102   -2.41128921491626
C          -2.04395788509518   -2.18169946024336   -2.07282232142295
C          -2.34844172748493   -1.08569508236303   -2.92266549399533
O          -1.70673178395831    0.10160569381013   -2.73376735625830
C          -3.29445121237118   -0.90948501468290   -3.91417337029984
C          -4.42544850292529   -1.54505132475182   -4.61101183118000
O          -4.93967734591066   -2.62158224130673   -4.47347463896290
N          -4.86370091551347   -0.55318498476888   -5.48538670066412
C          -4.19090903040213    0.65996761580757   -5.39625891292985
O          -4.43253047799928    1.64021423948896   -6.05592359288710
C          -3.19105746636238    0.42909300679509   -4.35177184647076
C          -2.18768696226448    1.02389140906519   -3.59981148645295
C          -1.65016392368669    2.33789652983196   -3.60785366801144
C          -2.09188243919290    3.29116924032118   -4.46072148800818
C          -1.56613770476396    4.61699272410298   -4.48347599744277
C          -1.96304400937192    5.61463451030056   -5.29644293150009
C          -3.01546319144789    5.51773338481005   -6.34653024902382
C          -1.27454709768778    6.95836738285407   -5.21814989910443
N          -0.33823586171725    7.10387270247475   -6.30759223386486
C          -0.60441028076626    7.78049822771023   -7.43714016534717
C           0.17345840050818    7.73998145262622   -8.54761898354725
C          -0.03205495702885    8.52752368969575   -9.71368495140026
C           0.87090030874525    8.46112777996589  -10.78456388509145
C           0.78914483630102    9.24561775381506  -11.95192188866629
N           1.76647634478614    8.99306651266528  -12.86654736067440
C           2.58004313794024    8.09713658677943  -12.45936889092726
S           2.26526474489067    7.42381712872803  -10.89137648153489
C          -0.25613481654880   10.17846164884732  -12.12860530321110
C          -1.20044190846415   10.19749803030272  -11.09445359991325
C          -1.10574068822980    9.42635467977430   -9.91553212040808
N          -2.12581826083567    9.64250685720254   -9.03468752844744
C          -2.95246177826714   10.51503694814069   -9.46194206167562
S          -2.60377656411043   11.21382607393412  -11.01912326169774
C          -0.41035418554268   11.00639117760007  -13.27585181280059
C           0.52630799375283   11.46634272075159  -14.14895139321532
C           1.96897920497218   11.51182875384954  -14.09866709650873
C           2.74371219145705   11.58274668733952  -12.96949810345873
C           4.14961768582723   11.65423348159196  -12.98004442869520
N           5.29665181118723   11.68342848117880  -12.92905988348560
C           2.21965023508936   11.65274749682135  -11.66443004430634
N           1.84673986962540   11.75265311013639  -10.58278205149334
C           2.44497971027453   11.72117390589612  -15.46126831933990
C           1.33528989211287   12.02579769939796  -16.28909960543763
C           0.09690462754619   11.95781299766104  -15.48465468031748
O          -1.03219288369542   12.20607009375916  -15.84233946035900
C           1.46991070062567   12.31529910805460  -17.62487909798048
C           2.75770946569435   12.29150661123171  -18.17172445777594
C           3.85638380838864   11.97189225639368  -17.33960364919402
C           3.72240077394745   11.68849011112663  -15.98578938967884
S           5.35306764738116   11.98916890660526  -18.22284974915159
C           4.49434669152891   12.42489874773307  -19.67680703725767
C           3.15654018479650   12.54931304393993  -19.51248859308109
Br          5.44629187141669   12.67250774541007  -21.27397725268958
H          -2.78237065328037   -6.02039119033444   -5.74074813386248
H          -2.31637621634183   -7.50522607764951   -0.97830290188744
H          -3.08251715457326   -8.75503623682028   -6.29419456253334
H          -1.64302570194484   -1.91388355402483   -1.10413097107762
H          -5.63456126202059   -0.69863184709222   -6.12203945416791
H          -0.86508036757145    2.53819844991751   -2.89250599611773
H          -2.88177348589678    3.03763911367650   -5.15159972018371
H          -0.78305916088769    4.82282334742787   -3.76273680626941
H          -3.33877681720847    4.49825146440524   -6.52504987548083
H          -2.64743601997069    5.94094341766771   -7.28129731183772
H          -3.88372354032679    6.10514818176197   -6.04588823886338
H          -0.73379620687132    7.05718925634388   -4.27174255208483
H          -2.00731951380760    7.76515701896963   -5.29222607747568
H           0.43271173849605    6.45056614318057   -6.32207911738563
H          -1.47099225445498    8.42605309580534   -7.41609884261946
H           1.04200647419347    7.09338044598333   -8.56211303594396
H           3.42211434342193    7.76113783615816  -13.03268267571201
H          -3.82257289396210   10.82343030013685   -8.91605714015557
H          -1.43498496553775   11.27305548653769  -13.52356013337555
H           0.60996344840076   12.55320332145634  -18.23113776383437
H           4.58681051077381   11.44624586223441  -15.38999630270963
H           2.47671354370893   12.81174137761377  -20.30239773400968
