156
 SCF done       -261.102942962074          0.000397193231
C          -1.49556725051156    0.07472879811502    0.24245220124584
C          -1.30020136360486   -0.14540752743310   -1.09585849900343
C          -0.73807839824018   -1.32459527412911   -1.62810980758173
N          -0.29254407183565   -2.26196232202056   -2.11869777394618
C          -1.59445005251331    0.77530027207059   -2.12417448204994
N          -1.78610181739274    1.47090671694714   -3.01771304303577
C          -1.10282282709888   -0.82766808738117    1.31570791592525
C          -1.32579255379816   -0.18024792496838    2.55445086406568
C          -1.04934644586429   -0.77462031654336    3.76175237903972
C          -0.52611341448177   -2.07148196575757    3.74570452428050
C          -0.31047041028083   -2.71303885110497    2.50238806508762
C          -0.59074286074983   -2.11211214279407    1.28202248316464
S           0.33474769141879   -4.31302237688859    2.71234850575668
C           0.30919336637471   -4.09994511274513    4.44278381266803
C          -0.15876786985633   -2.89465664672329    4.84526463691056
Br          0.90123515274891   -5.48967603545903    5.55445848837616
C          -1.88409980552449    1.16830705764357    2.32085946396714
O          -2.19710096959441    1.96249021998968    3.17978679527441
C          -2.04351058102491    1.27971089545127    0.84684984498607
C          -2.77199880593875    2.21593908911117    0.17891796665304
C          -3.28576589707662    3.46931479181407    0.65147819791618
C          -4.47049212867226    3.95538140820748    0.06419102984131
C          -4.99963604253657    5.14401066180438    0.49237835950306
C          -4.34166095567143    5.90306980421871    1.47971334460337
C          -3.14486583460039    5.45923362332611    2.02618468174145
C          -2.62910056959978    4.24755286951444    1.61639175257990
C          -5.11496938068683    7.09801106221986    1.72939301653464
C          -6.25447567114371    7.07638059954911    0.90618151125712
C          -6.26646712152827    5.83506370097057    0.04514600769099
C          -6.21255214265033    6.19168696966083   -1.45251391902545
C          -5.00660740028266    7.05039098329810   -1.81413682514935
C          -7.50622966487275    4.96568512590078    0.32598647953947
C          -7.63048221602272    4.56886377689381    1.79223479408764
C          -7.17487094343962    8.09387606821558    0.96404364235378
C          -6.97201662289379    9.17188846238153    1.83974364511631
C          -5.82777816344184    9.17847161493833    2.64934961361047
C          -4.90366995509662    8.15553378511118    2.60354327581501
C          -7.96912757563614   10.22006482000753    1.89276188552417
C          -7.80705349118194   11.43120294542885    2.45191884500924
C          -8.79933170183648   12.47755746226224    2.55381908999824
C         -10.15164702003978   12.29172914689719    2.24156695074581
C         -11.09030611042298   13.29181437187701    2.40735947618827
C         -10.69327927511515   14.52921697760657    2.90386962331842
C          -9.31818440137034   14.73085611532578    3.16472678579559
C          -8.38281248538650   13.73729034421402    3.01316719620589
N          -9.11513052678804   16.03516013096861    3.56873243042499
C          -7.84898187172866   16.61122558780058    3.92649126650337
C         -10.28937746595292   16.74079283158096    3.55732352295105
O         -10.36137536252212   17.90638278195877    3.88724136963435
C         -11.37421541736547   15.77717277334835    3.16562856233231
C         -12.71001959118707   16.06720468357169    3.21270174973808
C         -13.80095036664821   15.04212988402186    3.33184211949238
O         -13.74549714974439   13.83071044099015    3.27946232624994
N         -14.95794928276506   15.72418842348490    3.60574515522084
C         -16.22416542958382   15.08060403151351    3.81948703538146
C         -14.74459293605482   17.08841680748571    3.58897829566341
C         -13.37860235266321   17.34466627486961    3.33476746627615
C         -12.97653659387670   18.66520095707505    3.17635613168110
C         -13.89942765935311   19.67860453130012    3.35911769981843
C         -15.23131701977370   19.41898830574386    3.68788191169703
C         -15.66623875404688   18.09264056510148    3.77663678816316
C         -16.15857112582052   20.52218398078844    3.95882346835422
C         -15.70783031784860   21.64204268589968    4.66565304434641
C         -16.58503414242634   22.65988962621779    4.95344263639106
C         -17.92648631346083   22.58632018319015    4.54191976935269
C         -18.37830664793116   21.48690162213285    3.82707232625197
C         -17.49131671175047   20.46502124486375    3.54453027791063
C         -18.61469467151819   23.77111412423503    5.00932063821361
C         -17.69160672626026   24.58110371693583    5.69693764438414
C         -16.32459087586103   23.94106201037513    5.70825250994363
C         -15.84916943121746   23.66399349243753    7.14697759969283
C         -16.85009714724317   22.84949687754503    7.95711860493939
C         -15.28538613352579   24.81495314460677    4.98068822377334
C         -15.68024387831309   25.13188734395138    3.54314705430911
C         -18.08468867656483   25.75996865514970    6.27517134298250
C         -19.43254141908715   26.14796180087886    6.20212019527799
C         -20.34241311355968   25.32947562162976    5.51570973198222
C         -19.94504381661031   24.15531986608045    4.91040043667148
C         -19.91537274539162   27.31743633997606    6.88466603106545
C         -19.16236131846308   28.34372442058188    7.34358412026527
C         -19.67301681794738   29.46111974824338    8.05626540210034
C         -20.76300945683796   29.54040678219198    8.86911258287708
C         -21.61018130888826   28.54108514985411    9.48811225295351
C         -21.26025611072030   27.26602324879764    9.85119942470704
C         -22.11347068105705   26.38685870345135   10.54863793641540
N         -22.77301566786181   25.62550558881479   11.09985173587632
C         -19.98810165743351   26.69316874355366    9.65140363026686
N         -18.96809504839716   26.17355865330639    9.56520632192619
C         -22.83497487393182   29.21574193997888    9.91097679206096
C         -22.65455176391047   30.61523924331099    9.77814346611449
C         -21.32283450796404   30.87856622795357    9.19661648105114
O         -20.80557182799933   31.95227307340576    8.98662200585447
C         -23.62031194401385   31.52184198809716   10.14183701860308
C         -24.82521951009768   31.02388581188631   10.64879999978401
C         -25.00288462200426   29.62414236967254   10.75926228026725
C         -24.02332373289999   28.70691915093505   10.39934750123467
S         -26.57015879399276   29.22681506121673   11.39560679002409
C         -26.95790381633829   30.92326169752413   11.50947212139041
C         -25.96783331277694   31.74623262322565   11.09040592189087
Br        -28.63430692639713   31.44608807493061   12.16835311982930
H          -1.23035400522677   -0.25426641021094    4.68924202194085
H          -0.41547708989932   -2.64430586305066    0.36208911606084
H          -0.24304531765792   -2.59680568336500    5.87442961644351
H          -3.05078941471110    1.98091398446776   -0.84262960550526
H          -4.96342708989072    3.36759290121539   -0.69710360209987
H          -2.62312739154174    6.05107339916385    2.76263310844931
H          -1.69014359628395    3.90739669407826    2.01936155874991
H          -7.12866739943417    6.72384037620980   -1.71710206508032
H          -6.18464209180936    5.26642864229994   -2.03160289219850
H          -5.02175660734012    7.98766375005990   -1.26202559532871
H          -5.01586178925860    7.27718767031369   -2.87757436079474
H          -4.07980366192563    6.53021453369482   -1.58248772122365
H          -7.44904221436868    4.06593717855239   -0.29026311712046
H          -8.39709267492562    5.52014554684702    0.02380199535165
H          -6.76259608596850    3.99624334460841    2.11209209311526
H          -8.51845875750871    3.95864627899348    1.94016153598850
H          -7.71011029689244    5.45089577840562    2.42387325379709
H          -8.05557669948573    8.07910421893939    0.33748808438726
H          -5.67502687705625    9.99035913609575    3.34329833172797
H          -4.03430182836424    8.17464310957798    3.24361838774455
H          -8.90767340026852    9.97718667183725    1.41265099348339
H          -6.84315479492153   11.68964158296867    2.87123681650504
H         -10.48347259681417   11.33225526672472    1.87830076372048
H         -12.12269541160819   13.10125580524680    2.17384257072104
H          -7.34168933163199   13.91514926529367    3.23742740993933
H          -7.41483334122293   16.08326074986312    4.77793629936034
H          -8.02986711465923   17.65053512832459    4.19895733312011
H          -7.15454724769496   16.57115154787906    3.08426294886196
H         -16.05676228452362   14.00551355554864    3.76234448304694
H         -16.94330698940519   15.37779459528373    3.05276965810539
H         -16.62132072155446   15.33465045202801    4.80427072593009
H         -11.95771687470991   18.90746822855742    2.93290199208727
H         -13.58197960123779   20.70215016122165    3.23013377403442
H         -16.69343869889475   17.86725593539466    4.01731559614636
H         -14.68385102408012   21.68218853378185    5.00560243199836
H         -19.40492122024822   21.42616533306128    3.49755410003533
H         -17.82903615508482   19.61214045551123    2.97425339256727
H         -15.67478484021370   24.61753940568714    7.64864431399730
H         -14.89756053896479   23.13021560966089    7.10033406607855
H         -17.78219683443850   23.39626899825855    8.07846565832163
H         -16.44643472944877   22.64268151306103    8.94520345179314
H         -17.06376949093586   21.90196221396030    7.46663999289783
H         -14.32621967472024   24.29325374513665    4.98657856972352
H         -15.16215448592488   25.74654443180890    5.53677483200274
H         -15.78763655102680   24.21788345087640    2.96312034103179
H         -14.91841917188551   25.74973952155228    3.07329532220907
H         -16.62579660637170   25.66920347451450    3.51322678422753
H         -17.38124105221090   26.36114796618068    6.82857037078334
H         -21.37876050986325   25.63288612121005    5.46405415008940
H         -20.66052847893159   23.53908760171223    4.38681066482678
H         -20.99116697260366   27.37401044358639    7.00967081339447
H         -18.11116409036164   28.38722062384446    7.09493279714824
H         -19.15712827417806   30.40551358862905    7.90728798069147
H         -23.45198576196450   32.58235992667795   10.03948225063042
H         -24.20621287952584   27.64958496585708   10.49618040230076
H         -26.03776992444151   32.81862893718067   11.09170072839571
