102
 SCF done       -197.359579290164          0.000365761656
C          -3.81670044416828    3.17254694496587   -5.82142676825629
C          -3.82431280089879    1.80131887032763   -5.95537854349250
C          -3.09873477979692    1.09858704713982   -6.93632837141996
N          -2.53502334518989    0.45831899317180   -7.70668784832963
C          -4.54589391172711    0.89298197151771   -5.15762846018060
N          -5.09150184302363    0.06899974409757   -4.56909412147228
C          -3.05935064104666    4.09203374184251   -6.67000667051451
C          -3.32078515402906    5.41747349956921   -6.24658086631923
C          -2.74708709902558    6.51287678078120   -6.84169816413889
C          -1.86788395038645    6.29103944386806   -7.90812866574136
C          -1.61337281178842    4.96463395564241   -8.32469632148350
C          -2.19692720797518    3.85540627020842   -7.72264407191749
S          -0.49466838688847    4.91580273361537   -9.65456094914741
C          -0.38556796062871    6.65581997359491   -9.63042089954145
C          -1.14685695864994    7.24466630315995   -8.67853842677489
Br          0.72504745233795    7.53061501643121  -10.86432592591602
C          -4.26019469340408    5.38570578134535   -5.10398157568702
O          -4.69666168039743    6.35195299214934   -4.50787262651241
C          -4.53301227154495    3.95902821998098   -4.85436726999176
C          -5.32395842570212    3.47924422862536   -3.82658717855608
C          -5.99436157488698    4.26342480941850   -2.89717362707234
C          -6.72259927546468    3.72289078850836   -1.85129675762738
C          -7.41293576212794    4.42780306952577   -0.84186741195805
C          -8.00997902318181    3.62666111076162    0.09076253000780
C          -7.82009835667980    2.25124394647085   -0.14376731799198
S          -6.87270006436785    2.00071708614753   -1.59215158053117
C          -8.25013467236853    1.17324446270984    0.61448395992872
C          -8.96198245101521    1.17478623933953    1.83249043470427
C          -9.18037598144174   -0.07188353520588    2.33970729244332
C          -8.66137081531767   -1.12450926903494    1.54658539417813
S          -7.88670216351359   -0.46047359967579    0.12050679243190
C          -8.72650368317475   -2.46433997452049    1.84754799908416
C          -8.25919508387146   -3.53321839165318    1.07386166227266
S          -7.58696249494706   -3.28997245730941   -0.53189281120746
C          -7.24299904132493   -4.97973499715052   -0.71038499411888
N          -6.74495699319368   -5.37834249826554   -1.89375717429980
C          -6.58221763795786   -6.72620194951348   -2.37226736420405
C          -7.62821811200402   -5.71853740830480    0.41856375255867
C          -8.20018283344094   -4.88110553889872    1.41438970487202
C          -8.44120836983172   -5.36813084375575    2.79499693769759
O          -7.67831937912730   -6.09305746184411    3.38379225689302
O          -9.56847424385149   -4.88359472881366    3.32515235920681
C          -9.88255995321918   -5.32871504478168    4.63861585944755
C          -7.43701193114497   -7.13313978651547    0.55067919734902
C          -8.26385359138950   -8.01856912850267    1.17287700006866
C          -7.99274162718118   -9.40017504553741    1.37816053599408
C          -8.97402759808906  -10.07398422165501    2.03126426955175
C         -10.08526622939425   -9.26875753727912    2.38200561987314
S          -9.86699893849777   -7.63999890034891    1.79617320073719
C         -11.18934446115679   -9.63431418026102    3.12920493735242
C         -11.50957854994794  -10.91081865599366    3.63655907062121
C         -12.64690041535299  -10.93316317985912    4.38906430386454
C         -13.27961205419590   -9.67673854990598    4.51886004902615
S         -12.39022782446620   -8.46136456505798    3.63508508897234
C         -14.40697126848805   -9.40308258234949    5.26947477629660
C         -14.98124254480909   -8.14257924372531    5.37455332745391
C         -16.04007736506026   -7.76282125650946    6.17346958805145
C         -16.67577343173959   -8.41244880742235    7.28484050273104
C         -16.11206798816357   -9.32541034437561    8.14835031293497
C         -14.75692559976874   -9.70703388672784    8.12587453127287
N         -13.65182747260052  -10.01441861273639    8.19274188600326
C         -16.79204840541937   -9.90011086977395    9.23842184390903
N         -17.30276299026867  -10.41976946105834   10.12687319571043
C         -17.96945893118960   -7.76000562295690    7.49095103442080
C         -18.03203668530536   -6.61191955448900    6.66269091668218
C         -16.79716344800519   -6.53657170539322    5.85039240531635
O         -16.48620557129517   -5.66996578757748    5.05982374610756
C         -19.11031148646882   -5.76283757654753    6.65999730737331
C         -20.18368351157461   -6.06702711519463    7.50576481826507
C         -20.11670356655143   -7.22250615009807    8.31722722018175
C         -19.02037241897152   -8.07799156749000    8.32739501439337
S         -21.55373202443018   -7.41551459329652    9.27569833108355
C         -22.21369892125371   -5.95687629497631    8.58498485787090
C         -21.40322094271666   -5.35647405316075    7.68232925588844
Br        -23.91216668461748   -5.36558689241091    9.12039163810219
H          -2.96570216302624    7.51069911259612   -6.49481580008609
H          -1.96762182720691    2.86465746133138   -8.07743513355533
H          -1.19862248524593    8.30689221362170   -8.52320358765250
H          -5.42290680079090    2.40557169821372   -3.71883431507668
H          -5.93691242609053    5.33930366276126   -2.97552135644066
H          -7.44246056618092    5.50276154587133   -0.83087272812504
H          -8.57325475289069    3.99104122212204    0.93109710414564
H          -9.28377004433624    2.08584785739478    2.30363659937885
H          -9.69979247907727   -0.27127160321394    3.26023162088432
H          -9.20300902153870   -2.72930558308173    2.78058414749597
H          -6.53042336775852   -4.63912418048361   -2.54579900522687
H          -5.61013141360799   -7.13926471257439   -2.08843675645640
H          -6.64750069407856   -6.72215392355847   -3.45892067212549
H          -7.37090080478562   -7.36380631077551   -1.97229062908708
H          -9.04069277965181   -5.15471140131308    5.31147829047856
H         -10.11178934321388   -6.39603831632794    4.62629388068820
H         -10.75532347693503   -4.76195318659922    4.95140173731679
H          -6.52661760630972   -7.54188356971260    0.13597866379084
H          -7.06447537147480   -9.83743629904499    1.05539511416838
H          -8.92526987045771  -11.11585084363986    2.29096468567361
H         -10.90051813230320  -11.77369517217565    3.43621322447828
H         -13.04243633743434  -11.80916315389585    4.87093019750876
H         -14.85357536057927  -10.24109137248526    5.78461198116037
H         -14.61955421671384   -7.37160029358548    4.70016262634187
H         -19.12839816855667   -4.89013779420532    6.02616139935324
H         -19.01649006960755   -8.94907969597842    8.96138031077350
H         -21.65259106101719   -4.45042795952095    7.16082444605672
