80
 SCF done       -152.630424541536          0.000888159131
C          -1.11604735479858   -0.25791517056562    0.37714565153370
C          -1.43845461930700   -1.57031981314291    0.10764960006799
C          -0.49442810940996   -2.56823083061701   -0.20066929093450
N           0.21997307554953   -3.43073612302621   -0.45895949271681
C          -2.73639754175885   -2.11605300010905    0.10593802870773
N          -3.75619858967534   -2.64638546416652    0.08347505558499
C           0.24270190560675    0.28435293147109    0.38752553445094
C           0.17883641733079    1.65559869627911    0.73326705246707
C           1.29322837617582    2.45150144985238    0.82142243849581
C           2.53594301103715    1.86638367839623    0.55227186680780
C           2.59050250842808    0.49676185501629    0.20793752594629
C           1.46075401938555   -0.30949014208624    0.12112957088834
S           4.22273861127981   -0.02310820517526   -0.08839643506455
C           4.79984590593508    1.58714049621399    0.24954259665046
C           3.82399982140364    2.46915682774894    0.56856548159838
Br          6.63765839908198    1.95221411881909    0.14806135213361
C          -1.23363769251976    2.03555243097408    0.95278864045422
O          -1.63684832686404    3.13885072330313    1.27007504019860
C          -2.01784256077788    0.81309974088476    0.70134989441992
C          -3.40090976699549    0.74707526784901    0.73985584453800
C          -4.23791241863081    1.81038243979798    1.04106949349842
C          -5.62186449450726    1.72001076606989    1.00419780013381
C          -6.53990676297255    2.75648117195017    1.25468938323085
C          -7.85091240803659    2.39155175091862    1.09233194323731
C          -8.01662656733775    1.05020363256268    0.71339752656233
S          -6.47176015636794    0.25161526766410    0.57984883525762
C          -9.20795122856501    0.38270669134627    0.42372092080000
C         -10.50686635086528    0.91015334758714    0.39261994767325
C         -11.45878634732980    0.00075617335929    0.00247524474602
C         -10.94922211074083   -1.27570257643449   -0.27274952077301
S          -9.21957978228056   -1.30152166275378   -0.02133124004407
C         -11.66639926161016   -2.38633285720769   -0.71380857226656
C         -11.12554779255895   -3.63469034352783   -0.91425647706210
C         -11.82544108568568   -4.73001780549124   -1.41515012563468
C         -11.33055827266704   -6.03365017417034   -1.58135548722433
C         -12.23528791571706   -6.90890819523065   -2.12283432887184
C         -13.47704713218198   -6.32161582500987   -2.42185392176497
S         -13.48043531992525   -4.63657523429034   -1.96730759063100
C         -14.58110443215425   -6.91244729055397   -3.02455935959550
C         -14.71964573727705   -8.25555406418465   -3.43906957599898
C         -15.91596502888120   -8.51597653628640   -4.03109039017686
C         -16.77578416468013   -7.38516499841055   -4.13889291433504
S         -16.00304610706687   -5.99000845318610   -3.43288955717039
C         -18.03877728616057   -7.45165719415208   -4.66794864237593
C         -19.00441347337667   -6.44895571838428   -4.90703461510175
C         -19.03506540248625   -5.05283205729841   -5.00780820060214
C         -17.90144614420159   -4.12819726803857   -4.96165325719246
O         -16.79785582683975   -4.42875220881023   -5.34405697340235
O         -18.13064262866911   -2.90849970574621   -4.44018407984092
C         -20.40862173878462   -4.77051832916868   -5.28756791266654
N         -21.10281067248786   -5.87873429919876   -5.33667346553875
O         -20.26361574144997   -6.90734060155508   -5.10704021692487
C         -21.05765231488125   -3.48580933016870   -5.57790836046756
C         -22.31539970287786   -3.24113762178051   -5.19469360429803
C         -20.29106421782202   -2.56003865086023   -6.32246248855055
C         -19.60603757108720   -1.80883556307596   -6.97615975087834
C         -18.79292996110242   -0.93851787745533   -7.72092704696523
C         -19.21905563816914    0.21783577236896   -8.22090531738959
H           1.21071959435012    3.49385044520640    1.08683949439836
H           1.55734321751319   -1.34800841711799   -0.14750345285792
H           4.00203823307786    3.50237972163830    0.80490258383867
H          -3.87482160424018   -0.19701471167407    0.50046824490256
H          -3.80325144221817    2.76558181993068    1.29817756847123
H          -6.21238611957392    3.74086887399502    1.53763492522082
H          -8.68417248230783    3.05558068844919    1.23581015788736
H         -10.71747637838600    1.93461685800540    0.64007175259555
H         -12.50673610597274    0.22428346413213   -0.09146286601522
H         -12.72094147883174   -2.23919544713501   -0.91116268474484
H         -10.08192972838429   -3.79333899089166   -0.67276204706053
H         -10.32577718042880   -6.29612384910190   -1.30135162713860
H         -12.02812476631020   -7.94450946304918   -2.32182921537156
H         -13.94413829378828   -8.98511762158431   -3.29186777092573
H         -16.21179318946725   -9.47721896476724   -4.41177736033274
H         -18.39502695275939   -8.44213339608752   -4.92434820244602
H         -19.06194835710174   -2.75727422641654   -4.23013655649215
H         -22.87429790618145   -3.97822970720074   -4.64723288281743
H         -22.79929775987084   -2.30990150857216   -5.43253663108969
H         -17.77304343907506   -1.27448642065191   -7.86169011545472
H         -20.23309721995433    0.55300980623072   -8.08352691298974
H         -18.56588893093101    0.85962700762857   -8.78623045916987
