104
 SCF done       -198.539913325573          0.000778846313
C          -5.59602930646836   -2.83744443218026    8.66451086525009
C          -4.93009194130136   -2.81293868327116    7.45345985108465
C          -3.55958108903955   -2.53565235794267    7.31106323186479
N          -2.44945982033917   -2.30630555297470    7.11736831925945
C          -5.49615654023845   -3.06632229150210    6.19583281985463
N          -5.84217385108355   -3.28809409256807    5.11966899810080
C          -4.95384846910250   -2.63439072518393    9.96392532159881
C          -5.94852563496918   -2.69250804859972   10.96813615001155
C          -5.66404846316638   -2.56877532381190   12.30387953624945
C          -4.32309133323309   -2.39934851463491   12.67130104779486
C          -3.33643554569082   -2.35033138106476   11.66285396078012
C          -3.62887603535478   -2.45734697394408   10.30690305801825
S          -1.74229632139648   -2.17916224359415   12.33786850415374
C          -2.42046259093592   -2.17807664257195   13.94539473298702
C          -3.76787162725248   -2.29476587675564   13.97654136926098
Br         -1.28103131020779   -2.02665690454978   15.42873152161160
C          -7.26344772432629   -2.94069702794263   10.32961455378512
O          -8.32651806624178   -3.04324046913847   10.91438177296408
C          -6.99095227577289   -3.04953858551978    8.89064211955598
C          -7.95977325955298   -3.31487140049009    7.92633578585450
C          -9.30784030610356   -3.45994469246232    8.18128500859273
C         -10.24804126261924   -3.72972944355828    7.19102836587969
C         -11.63790285621527   -3.85754084072645    7.36720011273644
C         -12.32340002802061   -4.13536596471239    6.21283360954354
C         -11.49392338793403   -4.24995606315477    5.08721572413319
S          -9.82536547861790   -3.96266015868499    5.51810306093687
C         -11.83833762972113   -4.58270229465704    3.77969628570392
C         -13.11334735752595   -4.77869536854670    3.22012649676181
C         -13.08365492200245   -5.11797126157993    1.89433329944265
C         -11.78682325782360   -5.21908589080640    1.35312021245670
S         -10.59712599320346   -4.84381819851228    2.58697158831450
C         -11.45126966014114   -5.57527620260151    0.06090236890145
C         -10.17133467692423   -5.73251085817066   -0.44898072327588
S          -8.70569740132171   -5.52762906182250    0.49426587836608
C          -7.67119323671122   -5.94819321539091   -0.83295082442543
C          -8.42244117650867   -6.22318881138111   -1.98632275420527
C          -9.82579402788906   -6.10763881541771   -1.75998948300855
N         -10.71092210053972   -6.37791651947062   -2.73655320676059
C         -10.21326249575440   -6.74736310917797   -3.89227292088008
O         -11.03551228123160   -7.04994016960222   -4.89650717562369
C         -12.43208883205659   -6.95171726596280   -4.62704206348643
C         -13.18519907544457   -7.35058402974536   -5.88288147018681
C          -8.79881030138150   -6.85680865634761   -4.13185435855297
C          -8.27972120892633   -7.27633209459251   -5.47569510039406
N          -8.64586236260939   -6.29739731534602   -6.48921096239990
N          -7.93982528182676   -6.59869720388633   -3.18834199959890
N          -6.35348312217613   -6.02787018782561   -0.57586958017189
C          -5.28195005265573   -6.08805330401799   -1.44720177078725
C          -5.21803547440924   -5.70632655405440   -2.75560962637967
S          -3.62377645860354   -5.82583319029809   -3.38015449516822
C          -3.01308002584023   -6.39539378005421   -1.87897289755310
C          -3.99778214807266   -6.50404819557885   -0.94638039573731
N          -3.87604119069743   -6.99137968508405    0.35180949831367
C          -3.03257046912193   -6.54773394676325    1.30668199824169
C          -3.27496162720872   -6.79774282368199    2.61960537116334
C          -2.60507934999261   -6.17694005508559    3.68738493968012
C          -3.13439257263490   -5.98060794984475    4.93430153947476
C          -4.48384076300570   -6.10033780541286    5.42661340677111
C          -5.66174880200504   -6.09656770336206    4.70840119726464
C          -6.93801194138827   -6.22081709699039    5.29686697493984
N          -8.00074020144215   -6.37772593872629    5.70274628826786
C          -5.81959723435942   -5.94007591557604    3.32469948089273
N          -6.07485986893565   -5.84089100327014    2.20522195533655
C          -4.41990757829636   -6.01775945007362    6.88669450335321
C          -3.09032407060393   -5.71067319772111    7.27177156470882
C          -2.24138020111432   -5.63177908423033    6.06450731134644
O          -1.05575567898711   -5.40225578833180    6.00613619894611
C          -2.71600040519750   -5.53878435475784    8.58069879806950
C          -3.69899148743169   -5.68512113217716    9.56558044611904
C          -5.02439726249473   -5.98712933068158    9.17541726625595
C          -5.40388316225687   -6.15535240777892    7.84882979694890
S          -6.07994508000612   -6.12932087929302   10.54970209455473
C          -4.74057771603187   -5.79568910955439   11.61334649186993
C          -3.56487716738585   -5.58208573048520   10.97713099722829
Br         -5.01283941310280   -5.77402911281720   13.46377804210325
H          -6.44448166592578   -2.62087543728675   13.04685818189445
H          -2.83854955923081   -2.41416933207286    9.57664369209616
H          -4.34920732316366   -2.32024663123130   14.87985693328068
H          -7.63807432846696   -3.41101663388101    6.89614756907756
H          -9.66585381871076   -3.35721718428150    9.19534457379930
H         -12.09469109294710   -3.74571763770521    8.33451178817591
H         -13.38841962000163   -4.27488177551362    6.15936502779039
H         -14.01432067389084   -4.65974399522859    3.79444594670370
H         -13.95865706469024   -5.30502511257633    1.29685335387432
H         -12.25504439274796   -5.76554081190926   -0.63818285996451
H         -12.66456019882077   -5.92330628864260   -4.32903639691912
H         -12.67693639590252   -7.61162224019362   -3.78708320577751
H         -12.93755124850104   -6.67909153238597   -6.70090900596286
H         -14.25415400337781   -7.30239168829215   -5.69801899668721
H         -12.92099490869871   -8.36433575895534   -6.17249531872504
H          -8.66867879347353   -8.28895512659728   -5.68702591426067
H          -7.18951792993169   -7.32443474651408   -5.41869216673470
H          -9.65670245493595   -6.24012845680935   -6.55965475323651
H          -8.28782218045409   -6.58774331622136   -7.39245614005406
H          -6.12558442617106   -5.88922774650234    0.42079653713425
H          -6.01626479623245   -5.37306494945203   -3.38453298895592
H          -1.97463729981753   -6.63501993775163   -1.77456311578043
H          -4.69711642993019   -7.47616985620874    0.69610543397990
H          -2.22071248200931   -5.91431442915406    0.98034254650611
H          -4.11482137184275   -7.43350939681264    2.86559924659889
H          -1.59170487018585   -5.82153301240739    3.54116583029301
H          -1.69659214876202   -5.29597042107170    8.83569665006717
H          -6.42733386364240   -6.38927553364018    7.60854011576501
H          -2.63831632800756   -5.37021526301259   11.47873755096471
