88
 SCF done       -171.751897938141          0.000740941754
C          -5.37653410366432    3.68118997966607    2.33184321898552
C          -6.54911088679165    3.27867544972766    1.72084263520711
C          -7.40198381982503    2.26221187736662    2.19753962924541
N          -8.16162040171241    1.45888836289473    2.50979049226242
C          -7.07811920986458    3.77977708463054    0.53005050508438
N          -7.57333067265902    4.13728520547663   -0.44935181165846
C          -4.84901592086987    3.05017794876219    3.54050764657000
C          -3.59397406037889    3.62386336846721    3.86079153668100
C          -2.84844201818206    3.23334707953362    4.94501842989663
C          -3.36685006146510    2.22422812514211    5.76425928614036
C          -4.62174027868692    1.65669512282437    5.44126527759732
C          -5.37339082789826    2.05133500478173    4.34169259947481
S          -5.08108730886666    0.43028143435408    6.58386103861399
C          -3.60132612840082    0.69428233415291    7.46768905166695
C          -2.80283150255107    1.65060890833093    6.93586348954870
Br         -3.25161022829060   -0.31581493189803    9.00882447856569
C          -3.28278215153056    4.66456203603489    2.86948210240753
O          -2.29506721989479    5.36401982125349    2.81209533196927
C          -4.44458115226367    4.70834496428031    1.94069056976489
C          -4.38813020333191    5.71130866260942    1.00938266501785
N          -5.26350406940992    6.10871774312003    0.07843121327282
C          -5.11190559960223    7.20813263711029   -0.71977427373762
S          -3.72555291043907    8.24455716145204   -0.58541814529158
C          -4.41253004762149    9.28380108377831   -1.79086649494343
N          -3.69946891346775   10.41877175594699   -2.16868877183064
O          -2.58894299473280   10.57449363734477   -1.68092663354508
O          -4.22965189272391   11.18377213713110   -2.96358593752406
C          -5.62267210741952    8.84711414474025   -2.26561069402558
C          -6.04409826347160    7.64273020898993   -1.66947054394065
C          -7.24586151518736    6.92382290884126   -2.00279002322760
C          -8.26761992726330    7.47215197393085   -2.68306327438895
N          -9.38213817545043    6.78324751738984   -3.06897531781439
C         -10.47374841085924    7.36543560253741   -3.69677394823702
C         -11.77535985321850    7.03048445272004   -3.46379682873615
S         -12.87219423785356    7.99206317392064   -4.37222703202110
C         -11.57902003541009    8.85794593097252   -5.09507407419496
C         -10.36067217098518    8.41746883962544   -4.67060584877180
N          -9.13240318857623    8.87170518641780   -5.13832173776936
C          -8.72989870040886   10.17100125576257   -5.17073553693951
C          -7.43937090230732   10.53179222902774   -5.38054465187056
C          -6.96535625939616   11.85433506545957   -5.28162206290236
C          -5.64837992641162   12.20796537851953   -5.38863487445398
C          -5.08498791594790   13.48937515906902   -5.16972103799378
C          -3.73376735678595   13.53778847773131   -5.30063436018793
C          -3.14734990068243   12.30076110593876   -5.65977708249653
S          -4.37308815542885   11.06787382644009   -5.78970434628545
C          -1.81589495730629   12.05052015715515   -5.91560350203873
C          -0.72775659415117   12.94630441784326   -5.81246499238663
C           0.47019039578171   12.42511686938535   -6.18917548631229
C           0.40271749826798   11.07800170601243   -6.63021031043505
S          -1.25735128257563   10.49014145253401   -6.49076687857529
C           1.42282302047185   10.32590540235764   -7.12918650252364
N           1.25483580057633    9.05253689518061   -7.57906722911009
C           2.19457775160651    8.27265715954990   -8.15499205124843
S           3.82164401047818    8.84592489035685   -8.36155002330637
C           4.23754805272325    7.33952290941237   -9.12443046566972
N           5.54574187802186    7.18428757769300   -9.56084085816502
O           5.85076736955752    6.13112159456188  -10.10052463651230
O           6.30636118098438    8.12541407976765   -9.36911822014338
C           3.18340277536646    6.46467604562902   -9.20570539924439
C           1.99923821544227    6.97507016982659   -8.65610516796098
C           0.73030296415164    6.27795502197348   -8.60417885668191
C           0.48844294742203    5.08332753332007   -9.13553176206066
H          -1.89591128451052    3.69326033651390    5.15585464780058
H          -6.32383112382221    1.58407208292788    4.14847806526928
H          -1.85545000188706    1.94067170131075    7.35192526058303
H          -3.47911537888767    6.30612160939252    1.06522179537349
H          -6.12081368351719    5.57948872135893   -0.06122501346150
H          -6.15508316902368    9.38502381647136   -3.02844304956802
H          -7.32011547705847    5.89007613107986   -1.70112299665178
H          -8.25258160855001    8.51770600948977   -2.94746103559284
H          -9.52040620669184    5.87171359554739   -2.65429119321812
H         -12.14983992707728    6.28051925841175   -2.79700092389898
H         -11.78220150106142    9.62539204347328   -5.81377886341062
H          -8.40189507518455    8.17433224982730   -5.20306367601816
H          -9.50162569757199   10.90178592170031   -4.97765943824020
H          -6.70600276177606    9.76140416604424   -5.58729806941084
H          -7.67700118183345   12.63533700767366   -5.04965466705135
H          -5.70157607488881   14.33007672286078   -4.90422886592284
H          -3.14189528815417   14.42349766517671   -5.15638279775332
H          -0.86201560641298   13.95202483042914   -5.45797244158775
H           1.40194890137925   12.96111135661865   -6.17927077977111
H           2.41885267718248   10.73534701485852   -7.20076546351497
H           0.31746329590431    8.67269483563271   -7.50201864107536
H           3.29034559383653    5.49282889953556   -9.65000858288361
H          -0.07320763537123    6.78766763473385   -8.08683958014971
H           1.23747713455135    4.52425467884938   -9.66707161779595
H          -0.48199835864426    4.62609139640816   -9.05706558237950
