83
 SCF done       -189.393293671079          0.000579115254
C          -4.53097266020399    1.19377831231719    3.13694881155542
C          -3.40702109851379    1.79323433029371    2.63174617702961
C          -2.29982299414401    2.18029357458418    3.41508844901315
N          -1.37730371721484    2.51644614631340    4.00956658332385
C          -3.19028174448771    2.05910491750783    1.26273893947787
N          -2.93709556000814    2.27468501145428    0.16420465631472
C          -4.73954251414056    0.79391297057382    4.52300169806147
C          -5.95459745579825    0.07047962453013    4.60999443476505
C          -6.41886396162376   -0.45745474265452    5.79033991214115
C          -5.65928113373140   -0.25499580846140    6.94765521882938
C          -4.45174388606117    0.48010075905448    6.85136436923619
C          -3.97561481246510    1.00506144610164    5.65557594896811
S          -3.67119248352595    0.63218679782273    8.39489928416092
C          -4.95688188763122   -0.28074055078274    9.14072267133291
C          -5.92220265874245   -0.68263815456817    8.27845971988036
Br         -4.90854662509928   -0.61046297514833   10.98435050672530
C          -6.60298225062452    0.03708294427216    3.28692103326045
O          -7.72829935407872   -0.35564964245794    3.04911969957938
C          -5.67701980885009    0.74524302868292    2.36926405077148
C          -5.98618714938857    1.07416349823931    1.08085673757558
C          -6.99341086046258    0.40250650459347    0.32176131090169
C          -7.82302817655781    1.04584382603884   -0.57018469024184
O          -8.84015681951564    0.40758043471481   -1.22118186779641
C          -8.98900094843419   -0.92001087965929   -0.92970706541230
C          -8.11899460292381   -1.58816084213546   -0.02134393970377
C          -8.43744641298096   -2.89504685270588    0.14438246187933
S          -9.80404785951239   -3.32933632430113   -0.81344154154190
C          -9.94891286317628   -1.73162622750891   -1.43890535870185
O          -7.08077046575503   -0.94274676061059    0.57761235065280
C          -7.81142588212366    2.46784584891407   -0.76626044693146
C          -8.92669723603091    3.12362233875462   -1.14738957746209
C          -9.07850930528901    4.54579254426574   -1.20495881392549
S         -10.51998239018359    5.19205666296387   -0.48968219528294
C          -9.96584414546904    6.83365358329698   -0.64312568737332
C          -8.73978454059481    6.85754198510001   -1.30428097700733
C          -8.24461129343860    5.56804635322609   -1.61496658795223
C          -6.97357874193508    5.29128807636597   -2.36273381910814
F          -7.03973520473204    4.13293029082047   -3.04214247951858
F          -6.67947025243809    6.22521855309263   -3.26880499804688
F          -5.91240915500651    5.17842773655588   -1.54310847368887
C          -7.96546325253313    8.11275417591512   -1.57284807657480
F          -8.30581856984608    9.12371580415724   -0.75385632131492
F          -6.64883725641277    7.94847730177584   -1.40258267431679
F          -8.15095624388667    8.57820785070612   -2.82015375880568
C         -10.70301496158636    7.89480396731218   -0.05873661401431
C         -11.48933977239230    7.75425518617042    1.05422377052014
C         -12.11308691403522    8.79675357823767    1.79755654970440
C         -12.59653954638024    8.41290029238356    3.01099342085769
C         -12.39727192327629    7.04180526234603    3.29506757469414
S         -11.67902522999865    6.23814613307959    1.91277669471219
C         -12.55470418835022    6.31841646609685    4.45786660609902
C         -13.04608797720582    6.69791542008444    5.72964822199729
C         -12.90023015832975    5.73669209772862    6.68111515143858
C         -12.27850472493010    4.54229627940171    6.22097134987123
S         -11.96079060583452    4.67022871066169    4.50218510846753
C         -11.89331139522560    3.46785195548293    6.97490110569769
C         -11.19994492015276    2.32975620687650    6.51730728583326
S         -10.80394882008694    1.99388079054315    4.83500376909223
C          -9.99115740890904    0.52677214241540    5.17897031433695
C          -9.99992193790047    0.27828240752398    6.53267749514995
C         -10.67932815846736    1.29294698377725    7.27445190938488
O         -10.63329941938434    1.03516270131747    8.59819970722490
C          -9.93090138296587   -0.12517144910508    8.71047754417403
N          -9.66184282264501   -0.63304429780642   10.00435261619768
O          -8.89640796522135   -1.58025896388529   10.04721946356501
O         -10.18548863352354   -0.10081477675958   10.95529520444325
C          -9.53215400116580   -0.64245474677762    7.50819342541670
H          -7.33949449703007   -1.01647656948823    5.81414723099495
H          -3.05085250696358    1.55721634389427    5.63717341027563
H          -6.77764767779759   -1.25859089230628    8.58402865571056
H          -5.44416536835994    1.86690962847992    0.58590325593129
H          -7.95056400683782   -3.61886148664738    0.76320594721995
H         -10.71839594416353   -1.48433931211568   -2.13992692919310
H          -6.90258451808328    2.99769410481129   -0.53058503019515
H          -9.84206289493337    2.55866877854991   -1.26475333240825
H         -10.56050056047040    8.89288716588813   -0.44393635136569
H         -12.13764373013934    9.80501056422872    1.42437429396007
H         -13.05020309118597    9.08075186848202    3.72154541867802
H         -13.47387667578556    7.66866429427373    5.90524295827014
H         -13.19594121228521    5.84824440770209    7.70930245612917
H         -12.09794403744704    3.49060126106432    8.03718952508780
H          -9.53285909847034   -0.03079343935863    4.38527603592326
H          -9.00343507646626   -1.56209253658561    7.36769910536805
