91
 SCF done       -177.248602402740          0.000738288379
C          -5.97710987800398    1.43572262834117    3.30145327374301
C          -5.94135541698364    2.08009065607995    4.50949284205904
C          -5.20681068480471    1.62196009093841    5.62066678501357
N          -4.61925863564944    1.28740019411920    6.54863399215126
C          -6.56976285598145    3.32003612738101    4.74314667585050
N          -7.05407282258215    4.33690405230048    4.96395981707219
C          -5.25547576475537    0.21719204038606    2.95459596348488
C          -5.36476524066608    0.00134866338702    1.55553842585157
C          -4.76829936608560   -1.06510655589547    0.92683831854469
C          -4.05270046496284   -1.97095472517091    1.71718005805415
C          -3.98193481653625   -1.76563095634129    3.11547597309741
C          -4.56461471550270   -0.67502174274074    3.74964264442593
S          -3.08031935860016   -3.02125607401011    3.90363828418353
C          -2.78494227960617   -3.77983481024069    2.36287060333093
C          -3.34948959699743   -3.13776694401848    1.31266076797483
Br         -1.74869928641186   -5.33808424318514    2.28630471667511
C          -6.23139139550210    1.03760052898081    0.98706329147239
O          -6.57577333766254    1.17196788933119   -0.18697452538595
C          -6.67089469894864    1.86598513426573    2.10932824770250
C          -7.68235943446401    2.78116818865271    1.98627639249641
N          -8.24058661817349    3.03663027162164    0.79372631051868
C          -9.41268724666669    3.69728529679787    0.59025258468821
S         -10.48366832507731    4.02757232043109    1.91793586099233
C         -11.61187062282326    4.72712617608759    0.80550339264939
N         -12.82276253976296    5.21696611596390    1.31627643820732
O         -13.60994304273210    5.70336923659080    0.52697114133672
O         -12.99435564082131    5.11014322282435    2.51686798158745
C         -11.18205629865329    4.71640227914506   -0.49299404218989
C          -9.90874938668068    4.13039407262838   -0.64556349481428
C          -9.16526692816160    4.05479598064338   -1.87459843701315
C          -9.51139434528696    4.67238929391743   -3.02155698697330
C          -8.62192056675525    4.72261152618357   -4.14207986527368
C          -8.71957691087616    5.53853093819056   -5.20694707027433
C          -9.87563719846089    6.44284916338887   -5.49065876982229
C          -7.49406356185829    5.73894921352631   -6.07406386270364
N          -6.62751362335772    6.70761594807794   -5.41428591134298
C          -6.07461883037901    6.36230444402565   -4.22911046597772
C          -5.79960806949051    7.20808314175283   -3.20460675811630
C          -5.38725162264299    6.77092740388549   -1.91908154357300
C          -5.17727592780393    7.72081220200076   -0.88367593634003
C          -4.87995150423624    7.33803804313659    0.47228658770269
N          -4.68699940977231    8.28063000580780    1.40367207145408
C          -4.76257452501095    9.54730258610427    1.06668867502086
C          -5.06111035529824    9.92837260721288   -0.28037171457512
N          -5.26622745765478    9.02077582208981   -1.20467489331379
C          -5.14000318090100   11.29755710922021   -0.63448098829123
N          -5.20070746527486   12.41172398044083   -0.89545820621187
C          -4.54034198839198   10.54022490950163    2.05120837756874
N          -4.36160591461194   11.37285579401484    2.81813359847887
C          -4.74747539470012    5.97435375952269    0.86412848326469
C          -4.96149896735332    5.03186097572358   -0.16989352652669
C          -5.26594868179788    5.41595218417882   -1.52695103639080
N          -5.45190888606373    4.34146804589760   -2.30033299815746
S          -5.28296307537165    3.00325444065940   -1.42685491567252
N          -4.97088757173764    3.70977834420114   -0.01785502947551
C          -4.42318768462279    5.67787874512213    2.20077317800829
C          -3.92494035072535    4.53267874599608    2.77210980304945
C          -3.56204837971368    4.44755851793310    4.14328959692138
C          -2.90826827848479    3.30740770944347    4.49192512179068
C          -2.70696778618488    2.42410418516351    3.40554055823253
S          -3.46028681823963    3.05414176705703    1.95129736044960
C          -2.00863127032847    1.23767582138513    3.39637947834301
C          -1.43662592954167    0.55654697708660    4.50418387395835
C          -0.76647201825659   -0.57200884927789    4.17799468932037
C          -0.74753165537391   -0.86576707454745    2.77395681641281
S          -1.66472582367020    0.38054068941661    1.90783587496869
C          -0.15694910910790   -1.90026112976561    2.15866965250525
H          -4.85353185787716   -1.20228344410813   -0.13938691880056
H          -4.47767524083858   -0.55604593358785    4.81671443070178
H          -3.26846640818836   -3.46879883973555    0.29352259502934
H          -8.09475251617416    3.30069735880878    2.84202458232562
H          -7.79873167541555    2.53560766593734    0.00870289192361
H         -11.78035229027789    5.11414219891298   -1.29143268537396
H          -8.22528632578226    3.51993160746241   -1.84170134730224
H         -10.43101370604634    5.23383173703878   -3.07606949959799
H          -7.73808060617485    4.10625230871006   -4.04387678627089
H          -9.68883038676445    7.44172937282214   -5.09230118307149
H         -10.79428167978145    6.07015602622962   -5.04830231992500
H         -10.02488042313737    6.53685076396298   -6.56506358983577
H          -7.75107399465184    6.12071179600596   -7.06285811037111
H          -6.93681622155269    4.80576597145521   -6.18285969840417
H          -6.92123896758695    7.67292986140697   -5.49741570957613
H          -5.85758438015216    5.31172930184575   -4.11280243439042
H          -5.95881510418682    8.27204518531679   -3.30930172578742
H          -4.50617905958548    6.52617511040766    2.86970810192521
H          -3.78526995311300    5.25111929475133    4.82266507027256
H          -2.54662632202902    3.09382822498382    5.48133640201962
H          -1.55960262110381    0.92463469306012    5.50697377372966
H          -0.27214266160569   -1.21952970339191    4.87990909976373
H           0.39535287972418   -2.63178358766970    2.72202936843711
H          -0.20190363816965   -2.02566007357542    1.09228209074684
