127
 SCF done       -216.049883814169          0.000415035200
C           0.13658221833755   -0.41529578662255    4.31946323393659
C          -0.25240392070991   -1.40794823720614    3.45669528858500
C           0.22798999364583   -2.73236888568410    3.51046041006400
N           0.57748829537663   -3.82622535709864    3.51049753299732
C          -1.14452906813304   -1.24377950384133    2.37611056317798
N          -1.84044023575604   -1.19338572944265    1.46364307771580
C           1.14303794220982   -0.54953864546930    5.36386765404349
C           1.38619282092018    0.72856996483327    5.92006807397055
C           2.29214482288375    0.93684670351087    6.93109139818430
C           2.99331993148398   -0.17165967110884    7.41696921110859
C           2.74072965841858   -1.44665351466772    6.85766169661925
C           1.82409569414039   -1.65687457495769    5.83525720001631
S           3.71055830048537   -2.67777821847843    7.60942811990007
C           4.43364031492192   -1.47821316718342    8.64812617239673
C           3.97408235829804   -0.22101509435998    8.44556519505436
Br          5.72697468477647   -1.99971425846077    9.90284405371221
C           0.52945445712218    1.73445576888388    5.25495109543598
O           0.49986635258627    2.91694710412863    5.51721644920764
C          -0.30266927630566    0.96977408586399    4.29250648512509
C          -1.43054974230167    1.40212669308680    3.65772708477439
C          -1.92342335045375    2.73166125656045    3.46606868858132
C          -3.31397484519638    2.89225818510461    3.29014877302111
C          -3.83953742164261    4.14000664626153    3.08006541308036
C          -2.98701422786858    5.26289120549035    3.04944404945319
C          -1.61084209990549    5.11327631104463    3.17814831336139
C          -1.08688644774766    3.85607649418262    3.38030553328297
C          -3.78897569091677    6.44535682521640    2.86998708326440
C          -5.14311410512441    6.06750094788805    2.79375698118156
C          -5.28656009650319    4.56285795032752    2.91629230015396
C          -5.91294250065258    4.04426282652082    1.60439036524981
C          -6.07570574600039    2.53449301568143    1.48571738635818
C          -6.05003458806798    4.13572972314233    4.18780799757551
C          -7.51991366569927    4.52952743370167    4.25440292996656
C          -6.10653957794814    7.01968950900708    2.57126896769276
C          -5.75045835139375    8.37629096446415    2.45882415058466
C          -4.39569299917352    8.73206900144882    2.56383817313330
C          -3.41953821809323    7.78147299079448    2.75974709814533
C          -6.80429713932124    9.33267145732975    2.24804634402871
C          -6.63781914683444   10.65047637240124    1.99054004750525
C          -7.65497489546133   11.63106790033959    1.78927097120864
C          -9.05139214001637   11.44449264640590    1.90585192700208
C          -9.99009111098389   12.52119881176745    1.68797277322872
N         -11.29855303289096   12.30473237411125    1.80886654332138
C         -11.73856507650239   11.10239021422364    2.12943351414684
C         -10.81568439390655   10.03895085138799    2.35236345704442
N          -9.52327266618046   10.22973818712732    2.23951723025833
C         -11.27841023650688    8.74553157481916    2.70153896385339
N         -11.66964138662237    7.70510293030657    2.98045197831935
C         -13.12954342246059   10.88742532428365    2.24941142744431
N         -14.25318908825256   10.68108383105332    2.35285679080380
C          -9.57674086897920   13.85068802030517    1.33473923859210
C          -8.17360568747309   14.02422749148125    1.21647769179711
C          -7.24754211934287   12.94313028598086    1.44509641001355
N          -5.98322058221216   13.33410975288197    1.28787966618923
S          -5.95249891289693   14.89500002154813    0.89318899566606
N          -7.54838191921555   15.14994951481944    0.90261566597536
C         -10.55516106333649   14.82828014914315    1.15237039026312
C         -10.47874414628038   16.16320916783741    0.79305955868601
C         -11.62693903626782   16.98074297191161    0.67760908831034
C         -11.37765224697635   18.26911314518820    0.29744372692351
C         -10.01243985127301   18.52340060103295    0.08878114673534
S          -9.05333166792831   17.08972134198167    0.40394081900913
C          -9.40671261358903   19.70450408711393   -0.31539392208050
C         -10.00120329557202   20.95214173514628   -0.59427851189970
C          -9.11776933475837   21.91522117073628   -0.97986532514641
C          -7.76811656875577   21.48499494170445   -1.03455860950279
S          -7.68143214730183   19.78535026212552   -0.55425031808147
C          -6.71706331924008   22.27103872010841   -1.42280645939631
N          -5.42151340936285   21.95521078292733   -1.52051682837547
C          -4.84340848315329   20.65876729037979   -1.25774805361738
N          -3.42370568031965   20.90579471813436   -1.32716679335732
C          -3.20549727943030   21.98427483905603   -2.27949423803417
C          -1.88218750231176   22.68548293080860   -1.96344681365894
C          -1.89187107478378   24.16659229066304   -2.33125859153165
C          -3.09123356346198   24.93219748890440   -1.69808419430147
C          -4.08471941343717   23.98717813093000   -1.02307997769935
C          -4.42730769001603   22.88180183094759   -2.02308422559774
N          -2.44961886345328   25.84717303696665   -0.77446410908208
C          -1.11478948734253   26.09597623826331   -1.29520251985669
N          -0.68327384606719   24.83312002258234   -1.84697197210525
C          -3.17392436856480   26.85167444266563   -0.16877340173263
C          -2.70229934637624   28.01483741563859    0.26451050644972
H           2.45510688951622    1.92424582595917    7.33389745502507
H           1.66196374972347   -2.64836754061031    5.44679889832014
H           4.31035857129611    0.63748788042220    8.99778725605876
H          -2.08418861325397    0.63080445903019    3.26410771655569
H          -3.94724635981620    2.02060880856104    3.35987488404856
H          -0.95937461511164    5.97208358838444    3.12263809260787
H          -0.02026032619098    3.72977842323565    3.45316645740032
H          -5.28555786716443    4.39613893790570    0.78055613209764
H          -6.88960675014862    4.51713736050896    1.49066585730281
H          -5.11071927736945    2.03700747841041    1.45111610811984
H          -6.60209088187324    2.30355991862201    0.56186087450932
H          -6.65521846602527    2.13057863109040    2.31145785291731
H          -5.52898625327172    4.57280765087333    5.04441364988241
H          -5.96873394286266    3.05123902599142    4.28030062239224
H          -7.63552170606752    5.60819417987875    4.30112245504571
H          -7.96274011494763    4.10796815244551    5.15453380764841
H          -8.07376176570910    4.15118622019210    3.39974042800979
H          -7.14681426766129    6.75146422673631    2.46547103541405
H          -4.11178512136783    9.77009144745153    2.48897616146058
H          -2.38033159126221    8.06804032773148    2.82519080730613
H          -7.80885785692341    8.93951674111662    2.29648319597532
H          -5.64134493531097   11.06192662572781    1.89841491145775
H         -11.56292245577140   14.46629652081182    1.32226732272571
H         -12.60876105604047   16.58986170647597    0.87955126132006
H         -12.13772605423192   19.01802835771638    0.16276528304836
H         -11.06111666953845   21.10533297444280   -0.50382793416551
H          -9.39307396121596   22.92422784742756   -1.23161073586122
H          -6.95053659773954   23.29040601587894   -1.70334501168535
H          -5.21646630527415   19.92818610136314   -2.00178102488896
H          -5.11062456312238   20.29926549895913   -0.25709826506782
H          -2.88813375714587   20.07270234984181   -1.53206297301885
H          -3.21752378541784   21.64095032577696   -3.32795793290915
H          -1.06260935224363   22.19298278970857   -2.48713141734081
H          -1.70383049542665   22.58366202801858   -0.89135455085796
H          -1.92511518724693   24.27331857627599   -3.42262133436484
H          -3.62345900292899   25.48660123371366   -2.49167825749065
H          -4.98935586007887   24.52730989840733   -0.74093693162354
H          -3.65215675234432   23.55367098386445   -0.12242185331552
H          -4.78620723767252   23.34448381503475   -2.95061075700068
H          -0.44461573407168   26.43925311167044   -0.50692013629021
H          -1.13809572388641   26.84975311173327   -2.10175717763168
H          -0.25632504959382   24.27013011776430   -1.11865284218723
H          -4.21171783265011   26.59190529883331   -0.00801765666157
H          -1.68044021382353   28.31812376214765    0.13029853712218
H          -3.34272739521908   28.69727092735281    0.79117552113533
