81
 SCF done       -165.038715980665          0.000750518301
C          -1.79073432985358   -1.43093394284712   -0.76962069992943
C          -2.26782424475225   -2.72137805754522   -0.69545429879518
C          -1.46632179542826   -3.86941646077756   -0.84473673414942
N          -0.87254099721085   -4.84677874217275   -0.95846487829472
C          -3.60559541514682   -3.09422109793959   -0.46287705896484
N          -4.66890797739307   -3.49172690661767   -0.27967277943660
C          -0.39484708622669   -1.06681860057019   -1.01045085447270
C          -0.29081634552974    0.34520037458172   -1.02029095803203
C           0.89756746327698    1.00003950373187   -1.22645126219940
C           2.04361986106719    0.22345703755677   -1.43291949084613
C           1.93080551567655   -1.18552408608278   -1.41950210502053
C           0.72621913756705   -1.84815056229130   -1.21122747556074
S           3.46638215226759   -1.95248449763625   -1.69348075509959
C           4.22764247898371   -0.38913198560644   -1.82114918065252
C           3.37870534234899    0.65395026182988   -1.66687490690681
Br          6.07239933723396   -0.28211585793475   -2.14641890924930
C          -1.62706100842339    0.93221229401765   -0.78245879409453
O          -1.89024699089156    2.11852573264044   -0.72799680475639
C          -2.54348606105437   -0.21351938643505   -0.63293650415288
C          -3.90536947984833   -0.10563726585813   -0.41169991644769
C          -4.60419503588797    1.08742420941162   -0.29910534593482
C          -5.97739453003920    1.13852127141763   -0.11146366084024
C          -6.77805785069453    2.29227910021292   -0.01775053116215
C          -8.11520345256904    2.03246321856244    0.13266230238388
C          -8.41924812110382    0.66224490012949    0.16864506965908
S          -6.97056312908276   -0.29576442329856    0.01550196151648
C          -9.67360532643635    0.06046207254008    0.28051615996293
C         -10.93072269811068    0.67841778226162    0.34447173413314
C         -11.97591476025906   -0.21030552412965    0.40390237002315
C         -11.58147629865125   -1.55562559059642    0.39918582305768
S          -9.83978863610267   -1.67320415882279    0.31958622092885
C         -12.41132997813919   -2.67514980270722    0.42826032729805
C         -11.95974082894450   -3.97376917245463    0.45929463430890
C         -12.77629550768221   -5.10173893279851    0.43961802926742
C         -12.35511283724570   -6.43906745374067    0.50952378633471
C         -13.37679952222502   -7.35061821346259    0.44937748792286
C         -14.64754305472190   -6.76468613254728    0.31805227168751
S         -14.51583418694454   -5.02378349256734    0.29350409129374
C         -15.87512025790690   -7.40504858334304    0.19527439745878
C         -16.12104297583801   -8.79438286981379    0.21659783933773
C         -17.43353320734452   -9.12096658463827    0.04902469466219
C         -18.28722982557003   -8.00215611016213   -0.12139359062385
S         -17.36176618080630   -6.51801172783823   -0.04150536840514
C         -19.64100502987306   -8.04028707357629   -0.33710471569673
C         -20.43224832884304   -6.89565166665928   -0.54403754622665
C         -21.80732119085307   -6.77132502218024   -0.79756547841827
C         -22.69182300306847   -7.92940324291168   -1.01515081838773
O         -22.24641773940727   -9.01226899683685   -1.30486125894472
O         -24.00769194475343   -7.74436164119736   -0.89848411816815
C         -21.97877891510454   -5.36164656809598   -0.93102537100820
N         -20.82783117241274   -4.74256742451481   -0.77112809695876
O         -19.88224430766028   -5.66853833242771   -0.51499229491468
C         -23.11197771754661   -4.52936917506730   -1.28147202513499
S         -22.83291983452745   -3.24304408223244   -2.40020469322771
C         -24.46525289803164   -2.68247573763161   -2.24212505109605
C         -25.01944149788716   -1.52584960764626   -2.97117329540793
O         -26.15806381087073   -1.17414213891199   -2.82452083219317
O         -24.18993336096466   -0.88781486525362   -3.80752914657573
C         -25.16944369766280   -3.44786493372219   -1.34861526150811
C         -24.40197202645603   -4.48900761584287   -0.79907411786627
O         -24.85319170238813   -5.36991983605326    0.14018453388845
H           0.94356620915065    2.07782582121779   -1.22890592317111
H           0.69476965644953   -2.92467507947711   -1.21149451595036
H           3.67863968922530    1.68480246019252   -1.71586762817674
H          -4.48219376330008   -1.01845712473328   -0.32687931480309
H          -4.06761156870394    2.02233499716732   -0.37243314294595
H          -6.35152903115731    3.27804302300684   -0.06959588126589
H          -8.87194103904779    2.79156683207736    0.21617511901968
H         -11.04740614461114    1.74686110801165    0.33664594177652
H         -13.01161956665012    0.07637646897258    0.45003893348697
H         -13.47891469268282   -2.49403722912144    0.42271435278893
H         -10.89200367207601   -4.15003058307235    0.49977894607536
H         -11.31565312534134   -6.69937290556659    0.60215085131079
H         -13.23699929343210   -8.41548965351469    0.48727323753911
H         -15.33321958959563   -9.51265200250768    0.35434059602868
H         -17.82079887753500  -10.12362542076020    0.03293485051276
H         -20.15122596040647   -8.98901084887897   -0.39415688286125
H         -24.25069608011951   -6.88630976662231   -0.50325308046879
H         -23.30229894559459   -1.27029667544131   -3.83486132774382
H         -26.19858030654113   -3.25251738408064   -1.10436965731979
H         -25.77785707476116   -5.18462961010899    0.34463777615055
