104
 SCF done       -190.014169644305          0.000401563586
C          -8.78883225498261    0.24521907728927    1.77926384744885
C          -7.98094619727233   -0.71946565415062    2.33439410542872
C          -8.43078481217378   -1.67043862679037    3.26834755799470
N          -8.75366400278684   -2.46615297766932    4.03216956753066
C          -6.58878352917521   -0.80387077901253    2.12981331765485
N          -5.44453065419514   -0.88319375698394    2.06495842465028
C         -10.17390226938272    0.50649168343612    2.16563246987716
C         -10.56168722231723    1.74540151255929    1.60322014512641
C         -11.79546406383201    2.30506239056630    1.82089761934907
C         -12.70388555096025    1.58849454468602    2.60941583490867
C         -12.32515414913219    0.32753254731186    3.12117549438112
C         -11.06348863903069   -0.22395380474320    2.92668927191994
S         -13.62284278847601   -0.42444373892803    4.00014384373463
C         -14.62587468646971    0.96811586698164    3.70762407444756
C         -14.03350128421676    1.93954621510964    2.97586564256217
Br        -16.36499358895809    0.99799848269338    4.39542901524654
C          -9.44936611720036    2.26836769224749    0.77842237029352
O          -9.45552813839654    3.33381442653795    0.18350168644727
C          -8.39907793481282    1.25430798176158    0.82712936399274
C          -7.30838414338976    1.13976107717630   -0.02363517137332
C          -6.81743596303242    2.05299450670898   -0.94777112986174
S          -7.25274264059168    3.73722077527202   -0.89073463109661
C          -5.99805019877859    4.20829290507527   -1.99265401766423
C          -5.29684526366324    3.06408901543702   -2.46512408566607
C          -5.79886672053680    1.84507330203235   -1.92561991684508
C          -5.29945641276293    0.62670361705803   -2.43667081404160
C          -5.93214487869612   -0.70952114815835   -2.17562337331581
F          -7.27852925636758   -0.66269755058564   -2.15583291096939
F          -5.62761300846181   -1.60006437619677   -3.13707890035049
F          -5.55420052740774   -1.29368442217972   -1.02378442659962
C          -4.23446542035527    0.65208673305378   -3.31505074044349
C          -3.66903837192784    1.84314957020759   -3.75188988110868
C          -4.21161764213444    3.05883726672360   -3.37332170876528
O          -3.77236209984472    4.25539703207358   -3.82171565299959
C          -2.69233941057613    4.29045238551256   -4.72792751250214
C          -5.85136673145929    5.55665310911224   -2.33158747077765
C          -6.70097507814118    6.48646939648088   -1.76484932710130
C          -6.81352356488522    7.85464173262097   -1.93627691558200
C          -7.78869138289886    8.54360400857274   -1.21381295486851
C          -8.15719190221923    9.89869952860567   -1.22035215306546
C          -9.19243848618629   10.20848188062175   -0.36639498817568
C          -9.66962068986985    9.10803765042238    0.35624911363906
S          -8.78840869155164    7.66880954739473   -0.07759091095372
C         -10.66044886213174    8.96512635508168    1.32762407758338
C         -11.55366838301449    9.87618169812166    1.90936430066887
C         -12.36237112353449    9.31326623089705    2.86322584885403
C         -12.12367848009564    7.94127586452759    3.09451203041032
S         -10.87838871503452    7.37501148125659    2.01211761931182
C         -12.77931148481037    7.14165148453816    4.01171795491072
C         -12.50840932562114    5.83324891502479    4.41581749938529
S         -13.72296547574990    5.07889260520407    5.44943614330000
C         -12.81198269723060    3.60947824807745    5.66704415109507
C         -11.59996121560537    3.71137370696079    4.97233258424588
C         -11.44888325265878    4.93247824027333    4.26612100711459
S          -9.91357491294727    5.00329535962906    3.46636867896084
C          -9.50223495535016    3.43383666714397    4.07246191489542
C         -10.46128008524775    2.86878051296978    4.83555070426245
C         -13.29756409314751    2.52874822909628    6.43107884341276
S         -12.30214332567965    1.11383926139460    6.67727738338961
C         -13.56448891234930    0.30653251398131    7.55745333869454
C         -14.67255502358901    1.12040657244911    7.69196299360317
C         -14.53090124893476    2.36695274579877    7.05846325878994
C         -15.60397649788440    3.40104950611018    7.08127571909140
C         -16.92601985260942    2.90190531912438    7.67552084844698
C         -17.81740061513879    4.10584275277648    7.96879824377832
C         -16.64692730732936    2.04183233567134    8.91390177532785
C         -17.92025143645539    1.63847898929135    9.65206588008933
C         -15.89982689200802    0.78043804939030    8.47043854595711
C         -13.29900130914994   -1.03475080566224    8.00060117125174
C         -14.20157198546298   -1.95913268575153    8.32462581020512
H         -12.05541500884517    3.26181130327386    1.39474410988178
H         -10.81807975416914   -1.18401713613326    3.34921597796436
H         -14.51036819963543    2.86319877688773    2.70090771294773
H          -6.77454093211317    0.20393179566278    0.04807771900575
H          -3.83605632541591   -0.27639071013653   -3.69311354273582
H          -2.82982661402449    1.79410962143471   -4.42476994386025
H          -2.52690492435479    5.34487118707352   -4.94362736395721
H          -2.93161912774770    3.76447280282752   -5.65674671476995
H          -1.78589238044656    3.86548751656044   -4.28755019284633
H          -5.08786080412439    5.84785143482087   -3.03387769413429
H          -7.42044893057921    6.06686292077409   -1.06968011648265
H          -6.17564919958715    8.39953160330145   -2.61702839955934
H          -7.66345643301247   10.61918429086929   -1.84907028098989
H          -9.60177226639462   11.19658446832643   -0.24900570031537
H         -11.58345644459321   10.91269238766683    1.62416730936932
H         -13.10644283968192    9.85556719050438    3.42002502773987
H         -13.63534826219448    7.59643956997646    4.49654641932078
H          -8.54467307758150    3.02548227233218    3.81361448050183
H         -10.36189531217932    1.89919561810033    5.28477355118632
H         -15.78864864312058    3.76163823001270    6.06514766885515
H         -15.24760318147907    4.26000668751073    7.66158557417892
H         -17.42539110985036    2.27234308175918    6.93142799153337
H         -17.41427359275239    4.68868617348284    8.79480603079120
H         -18.82616155532185    3.79423137382158    8.22191083653137
H         -17.87333919470193    4.74692299237730    7.09186080772269
H         -16.00598027447313    2.60921605492871    9.59860619645750
H         -18.62475587753779    1.17334186052015    8.96579413129591
H         -18.39766077809666    2.49868332099101   10.11183340126439
H         -17.68551909226858    0.92424916649296   10.43868158161914
H         -16.56980319594538    0.17778802750834    7.84881619637407
H         -15.62136907533542    0.18393052424174    9.34221855374967
H         -12.24765544824880   -1.29490183263917    8.01938155923315
H         -15.26056794332145   -1.78779990072207    8.26768926613820
H         -13.89049036271296   -2.94191345422455    8.63307634637371
