99
 SCF done       -185.018123926512          0.000512478894
C          -5.92979853559361   -0.65214696788751    2.03416276208876
C          -5.14559234645464   -1.62590634617560    1.46476679233819
C          -4.78417720113716   -2.82720507069747    2.10704446607284
N          -4.45480958268537   -3.82445983169275    2.57222301245747
C          -4.60243534689910   -1.58986120488689    0.16458911879679
N          -4.12510511712571   -1.65001032274801   -0.87885613303492
C          -6.51567222706882   -0.72351037079126    3.37046359408999
C          -7.31693536000263    0.42501139362113    3.57679960515806
C          -7.99894002044675    0.65265117420047    4.74645424181545
C          -7.88033998230905   -0.29673871419105    5.76728655386949
C          -7.07528742607100   -1.43947578709499    5.55359054574829
C          -6.38927462620406   -1.67218745199746    4.36768774041108
S          -7.05828879001603   -2.47936305356342    6.94671986309142
C          -8.11897168336808   -1.37820463931881    7.78472401526266
C          -8.46964180790755   -0.28884307093230    7.06163278948955
Br         -8.66148517431574   -1.76929614629801    9.53779248701995
C          -7.26076411363052    1.28342269640469    2.37358617653176
O          -7.85206346242952    2.33324714828442    2.21837008684461
C          -6.34305664549682    0.59884642378206    1.43867365382900
C          -5.91348354896915    1.11510505201816    0.24025206330281
C          -6.29585258452970    2.35652453049108   -0.29140345834482
C          -5.73264023959349    2.84171722093680   -1.43863234664490
C          -6.01255179483880    4.10101683571215   -1.99304851431733
O          -6.94253467202786    4.93938753084955   -1.46168853456461
C          -6.93382931740759    6.09363572747553   -2.16920950071641
C          -5.98253126721144    6.00233651122730   -3.18642848094765
C          -5.39946392459012    4.73021908387201   -3.08383584096149
O          -4.43629493426031    4.20363133884860   -3.85847142944995
O          -5.63860851650810    6.91474938315949   -4.13467762143823
C          -7.79866198606372    7.16683937552851   -1.84535228510024
C          -8.82266279368454    7.07569076693740   -0.95529447198663
C          -9.69962943896126    8.13107228052904   -0.58776669879083
C          -9.42541624283155    9.45039531956623   -0.77900437185824
C         -10.21077680829378   10.58807149597967   -0.48578674746797
S          -9.48099613457859   12.12331211075445   -0.94929741686110
C         -10.88944827988060   12.98444996472099   -0.45703657957012
C         -11.22753130861837   14.33921989317980   -0.38770144949669
C         -12.47315562008994   14.51864645105411    0.15834539760591
C         -13.13082951543485   15.81702965074359    0.35067976075547
O         -12.59945410320900   16.85427493182880    0.05465395872880
O         -14.37071432933757   15.79418112636270    0.87096011198054
S         -13.23389415081062   12.99995997773010    0.59369220030468
C         -11.87296740425729   12.11483783282528    0.01180065415540
C         -11.50948891541024   10.74303142743980    0.02379271808610
C         -12.32940204828891    9.68744498837857    0.52973856429810
C         -13.68104968035479    9.57423629118474    0.37546259926205
C         -14.51087836049657    8.56186405584146    0.93330754698759
C         -15.81659097454838    8.63227017208462    0.55899831181114
C         -16.10603881348684    9.69726644816655   -0.32241643067283
S         -14.64566816183075   10.60167982662927   -0.67414769525047
C         -17.31443963417767   10.07124091929288   -0.87181440374971
C         -18.58071577056079    9.45868192914438   -0.73100727895743
C         -19.57478628184280   10.09130420627384   -1.41106669175818
C         -19.16533844694300   11.24527665623043   -2.13025191714694
S         -17.43713664107401   11.48075915195182   -1.89845504263787
C         -19.98672317065590   12.03998271720024   -2.88498357941464
C         -19.67332195410317   13.20624815699552   -3.61704250408051
C         -20.59620290769386   13.92607415777579   -4.38191940082461
C         -19.93944938475239   15.03391052151411   -4.97290774299818
C         -20.38797677847428   16.03422998870705   -5.80706706771161
C         -19.46037625659745   17.00347705598456   -6.22122235639222
C         -19.59376878379625   18.11448425613119   -7.04321159878491
C         -18.33101062349374   18.77853488295493   -7.14049026232404
C         -17.41775299764144   18.07472964622063   -6.37595355729498
C         -18.07728939072071   16.95407331706657   -5.78165932859243
C         -17.62548641814110   15.96220378029025   -4.95417604200601
C         -18.55473373501290   14.98315062250606   -4.53973984887093
C         -18.40663881791767   13.87783282097515   -3.72564245377511
C         -18.03505186255656   19.97261873911500   -7.89521548136364
C         -18.90298019909804   20.65556016450163   -8.63660312846824
H          -8.60197878176510    1.53818812485524    4.87265949021855
H          -5.78639902858772   -2.55768325105413    4.25666714053360
H          -9.11510955378203    0.49014480936802    7.42440995780640
H          -5.19659690854027    0.54571739565451   -0.33758347001391
H          -7.02564227708783    2.95080930739667    0.23691907801280
H          -4.98945966854264    2.26369635430060   -1.97135047078580
H          -4.19109397128935    4.85392226042171   -4.53037385523003
H          -6.16982857220972    7.71134335289691   -4.03107033557012
H          -7.62439044240762    8.08950220081692   -2.38235049670788
H          -9.01145486639553    6.10697369386811   -0.51364041853770
H         -10.62192039508105    7.83189056481441   -0.11668840369566
H          -8.46653567411427    9.70112259410353   -1.21623841039595
H         -10.60863488267740   15.15490131200931   -0.71156740904249
H         -14.68561230770434   14.89885958913647    1.05591293221565
H         -11.83230474558140    8.90279820783944    1.08183789727899
H         -14.10814735606614    7.82103000408697    1.60130330423760
H         -16.57995716554312    7.95356476247941    0.89563844736624
H         -18.71897324815973    8.57268092492334   -0.13769983626904
H         -20.60142346669720    9.76887264732734   -1.42075115096927
H         -21.02464853219081   11.73034676154567   -2.92718742946299
H         -21.63506163643352   13.68012603477159   -4.50465023748419
H         -21.41667181912188   16.07935330709469   -6.13610114781092
H         -20.49937722058726   18.42781527575109   -7.52951810711387
H         -16.38017242811220   18.32063674349562   -6.24198312844925
H         -16.59853322744004   15.91726622093049   -4.62055055543597
H         -17.49467725905449   13.57270191345747   -3.24833463382959
H         -17.00837358865404   20.31024666042136   -7.82650309123484
H         -19.93324601836397   20.35983850797261   -8.73581205534596
H         -18.60968958099789   21.54104255951956   -9.17316929938388
