115
 SCF done       -203.019847999630          0.000515249535
C          -0.27283290324339    7.70562409884528    4.10865276201977
C           0.67790263661299    6.84354322469477    4.60534099789383
C           1.78953477143333    7.24958749216815    5.36899871450771
N           2.71648330238467    7.51423150225981    5.99424397534396
C           0.69369271817223    5.44518623607706    4.44004826099008
N           0.78667335104967    4.30193777009423    4.35776011285490
C          -0.26551600350189    9.15537671765112    4.30456679394673
C          -1.40405266357732    9.69987677904934    3.66348564031955
C          -1.68510729379393   11.04290279497022    3.66015259840224
C          -0.79475844176404   11.89600376518406    4.32255705767947
C           0.33973016894534   11.34490010778507    4.95962973991798
C           0.62184428258115    9.98294384921913    4.96357778323015
S           1.30917494100395   12.57447051143929    5.71484720702244
C           0.19043887641316   13.79520114428525    5.16966066326390
C          -0.85526001000552   13.31021726507352    4.45996323601789
Br          0.50843866984189   15.59683720378833    5.58785116205723
C          -2.16839968794760    8.60426296474902    3.03635784822256
O          -3.20983067561434    8.73437680775038    2.40667571902437
C          -1.43544252722900    7.37869612369639    3.32043235510905
C          -1.77570263328502    6.10391921672729    2.89437073211555
C          -2.83375939628513    5.66286476753814    2.11997466049046
S          -4.10079924305637    6.65951468642819    1.45254285542183
C          -4.85687682056772    5.32587939746284    0.66541289769982
C          -4.16484094745651    4.12025754427470    0.90213900008601
C          -3.02654890685941    4.30126510526688    1.73592331926267
C          -2.24741997751605    3.20234873191457    2.08957544753315
C          -2.58632074916407    1.93775146743070    1.63074140662736
O          -1.77762761792447    0.93239777119897    2.03382982472489
C          -2.05758311879291   -0.38767964872243    1.63267644512740
C          -3.71282677429059    1.76309659492447    0.80133571362853
C          -4.48684770765586    2.83482115337555    0.44376284675261
C          -6.02077015955361    5.50659671473612   -0.12226926476235
C          -6.67985641349103    6.69062715544643   -0.15074461054173
C          -7.86780950031756    6.98862877483056   -0.89413840979276
C          -8.69349051874621    5.99035765887668   -1.34535347769297
S         -10.14313834225899    6.52607611970234   -2.07390301330105
C          -9.66479771506972    8.17681723751962   -1.80792595439657
C          -8.41398158409460    8.30247250132117   -1.18575460630781
C          -7.89085123113756    9.60461421927369   -0.98503715884653
C          -6.49863041346759    9.77103169261033   -0.42946670669496
C          -6.48280746601198    9.84389897612999    1.10260039694105
C          -8.65067408741099   10.72223768769007   -1.31299372397960
C          -8.12271806353466   12.11103087498325   -1.06895477957822
C          -7.41011766337190   12.65805224722374   -2.30916813439589
C          -9.92921995946290   10.58302349929744   -1.90245421064168
C         -10.91802191631762   11.56955611484806   -2.28230369010511
C         -12.04646963687042   10.98184761360579   -2.77788058897666
S         -12.00242899882857    9.26599849997635   -2.84651255096581
C         -10.41332209019779    9.28867036160431   -2.15041785076508
C         -10.85527901753976   13.01368081311381   -2.19109693922081
C         -11.92321517524924   13.75649139063859   -1.81918470266067
C         -11.93691942117277   15.16794986125337   -1.75435529251322
C         -13.02137492044910   15.89302267746707   -1.34553239421790
C         -13.12832345282261   17.30476727340095   -1.23479499000593
C         -14.33693861397855   17.74424554427587   -0.79452531780884
C         -15.26710991812181   16.71103874452535   -0.52947041214407
S         -14.54385733401238   15.14958144923200   -0.86366565398184
C         -16.56446113352472   16.81776177791180   -0.08197019930306
C         -17.27424248034155   17.99126905047411    0.27362255611979
C         -18.54886380307385   17.75423835172856    0.67281106117789
C         -18.93179187182254   16.37971396528348    0.67193487689836
S         -17.57735104877636   15.40439265422280    0.13839418133570
C         -20.19455133120955   15.94509127240519    0.94964623382246
C         -20.77269873073968   14.63864458058084    0.92477883919960
C         -20.09073315670702   13.42459980675189    1.08414396990556
O         -18.79071369217419   13.56415694543183    1.43879478890616
C         -17.87016424077871   12.49774771614986    1.49981838886075
C         -20.77820081222954   12.17234760688727    0.95541494467639
O         -20.01537426785359   11.04613613490610    1.08383305157006
C         -20.63227274637044    9.78882635716969    0.95125226152861
C         -22.13228186924992   12.11921230286706    0.72381935111479
C         -22.85555601616600   13.31528434430406    0.63004979236281
C         -22.18138458448201   14.57605535039973    0.73795547315933
N         -23.01644995751656   15.60251764587518    0.61985033658348
S         -24.51099283253815   15.02958886052754    0.40372588112525
N         -24.16587308963113   13.45382602460560    0.44124516974224
H          -2.56176850235853   11.42647851801718    3.16207011959669
H           1.50141290052918    9.61522308043904    5.46431993116529
H          -1.63737734983570   13.92219090678029    4.04908501140327
H          -1.10337943543920    5.31398089281854    3.19864653806470
H          -1.37906419117026    3.29240699057464    2.72229528460409
H          -1.28243244486408   -1.00078237156721    2.08915821316140
H          -2.00968127971752   -0.49770541932435    0.54467740458922
H          -3.03710307438108   -0.71889215119650    1.99193203309852
H          -3.97558341220609    0.78098150543940    0.44219371805731
H          -5.34825648575818    2.68759375985639   -0.18917851579859
H          -6.35196166751098    4.66629746778211   -0.71508244771541
H          -6.29020288010760    7.46444705905150    0.48749446274148
H          -8.54217078698251    4.93507762357327   -1.23121937605664
H          -6.04105920413558   10.67421051247613   -0.82936928447476
H          -5.88214365746763    8.94059949066027   -0.77348366254947
H          -6.84285383888752   10.81129241241704    1.44616113368458
H          -5.47214893929117    9.69710883838940    1.47737385775825
H          -7.13106199320057    9.08698826188722    1.53929707741333
H          -7.43476082309891   12.12080725599056   -0.22628576543902
H          -8.95826201902685   12.75917762799214   -0.80281413748121
H          -6.51871878466588   12.07471069208741   -2.52926911414810
H          -7.11231517769613   13.69244389925740   -2.15017923536889
H          -8.05669493375812   12.60868160328932   -3.18235363155476
H         -12.91472418246313   11.48744138519533   -3.15299261259612
H          -9.94402152933491   13.51498208139876   -2.47719398407229
H         -12.83375066226818   13.25651831127221   -1.51328992769464
H         -11.04339135548710   15.70836446343760   -2.03779924935661
H         -12.30088224862352   17.94560791943429   -1.48491337691401
H         -14.59023946530159   18.77994710570234   -0.65320395129000
H         -16.82168546330308   18.96611868112916    0.23181926212822
H         -19.24377344100931   18.51758700837949    0.97636470813350
H         -20.92493061144793   16.72561770978204    1.12813046778854
H         -16.91071652158780   12.97444452738973    1.70134822471790
H         -17.81011389438828   11.95749411512057    0.55411409309488
H         -18.11206844683264   11.80299009019055    2.30569786623957
H         -21.38984787264898    9.62879213559694    1.72448132610955
H         -19.83102092467219    9.06137347837121    1.07377202455961
H         -21.08629297457804    9.66555291127031   -0.03654581102822
H         -22.66447076656582   11.18948002726107    0.62725660852042
