140
 SCF done       -239.317997195534          0.000512379899
C           3.52656638714077    5.44141247867780   -3.62948786300300
C           4.59562906857590    6.02169955173373   -2.99767522650458
C           5.94317649869125    5.73462318943253   -3.30104150300015
N           7.05728822701427    5.54836816074213   -3.50574459993262
C           4.51831634294657    6.95951469271729   -1.94609731099406
N           4.55062471013074    7.71218949609604   -1.07917056552737
C           3.61132309534656    4.40484358667154   -4.64963976842015
C           2.30098695255729    3.97547210597837   -4.96784588692679
C           2.04497334374622    2.99371815021178   -5.89396822416188
C           3.13744305365464    2.40168771185678   -6.53521160341617
C           4.44485077532475    2.83959455857031   -6.21451719623412
C           4.70251530537424    3.83532109672480   -5.28107515520905
S           5.64818350100930    1.97738477703170   -7.12508263087339
C           4.39628181602588    1.05085835328172   -7.90923519470110
C           3.14121106745320    1.37011945032612   -7.51354055533416
Br          4.86418692729686   -0.25019012088534   -9.17646889495926
C           1.31821076430092    4.73270374697927   -4.16611121428079
O           0.11406567436262    4.62436938221345   -4.24060628095717
C           2.11880760849537    5.68128535612116   -3.34781186492540
C           1.64208019606841    6.72808631713196   -2.61837720006770
C           0.30004889770244    6.99856473317094   -2.19071281435997
C          -0.06231273716397    8.34326797615137   -1.97540611899928
C          -1.33460422886043    8.64458126782187   -1.56665257746086
C          -2.26878270492130    7.61756844126651   -1.32881405758892
C          -1.90611490062578    6.28645682578447   -1.48546580814457
C          -0.63094525766492    5.98563359696614   -1.91456382566606
C          -3.51382465562966    8.21794931381158   -0.90962069865770
C          -3.34949964450421    9.61398542578880   -0.87184591616370
C          -1.95175227591192    9.99749848753726   -1.29838755261169
C          -1.20310564297129   10.74768004900336   -0.18144143907928
C          -1.13426041060848    9.95652879507719    1.11916616674861
C          -1.97770333417645   10.86079199570804   -2.57441622363638
C          -2.70692362884281   10.18741073963712   -3.73100938444172
C          -4.38692842021318   10.42674529062212   -0.48656618647975
C          -5.63009102384770    9.86286184436696   -0.15838664217825
C          -5.77671752322524    8.46914204740747   -0.20484064489331
C          -4.73238880873226    7.64587685085208   -0.56958432009351
C          -6.71421938341021   10.73963987927523    0.21929814782425
C          -8.02110243537226   10.41256539703361    0.20543609805605
C          -9.08757975408016   11.28048072794339    0.57849484523840
O         -10.36405951155488   10.83003726142835    0.35586187927313
C         -11.17875046997534   11.78921388173972    0.77769469151182
C         -10.46184607356541   12.87936094480960    1.29311782137527
C          -9.10918613941882   12.54540115107101    1.15792671683396
C         -11.38970063143811   13.90933313310675    1.75498105027312
S         -11.03708962550827   15.34449039053960    2.43570717213795
C         -12.70609269669651   13.34931370168439    1.46122817083629
C         -12.56479662519286   12.08333949169141    0.87439891056825
O         -13.74372960878316   11.55179036533406    0.57254793608513
C         -14.68831471295360   12.46680508113624    0.96047963808423
C         -14.08498757328529   13.58929991023836    1.51791769736527
C         -16.06879915890352   12.19234375066578    0.73555373803175
C         -16.50233734566959   11.08254699469029    0.10333352854341
C         -17.86477989992338   10.73035429490218   -0.20827127765904
C         -18.08592661847741    9.61231057596509   -1.02948427720862
C         -19.36567381981781    9.25982440521032   -1.37578488170177
C         -20.46342938095484   10.00073979826628   -0.90254480194984
C         -20.26026242389947   11.09940971329975   -0.07738050742198
C         -18.97055358867992   11.45525749765310    0.25896552730339
C         -21.67442339451714    9.41643382680306   -1.43286661741210
C         -21.32432427790772    8.31415794503634   -2.23453532349396
C         -19.82696984348954    8.12335000193911   -2.25657095894436
C         -19.26971873036243    8.25915942865978   -3.68652902184808
C         -19.65470945568989    9.57513786235774   -4.35176306145716
C         -19.42267734256590    6.75757160591776   -1.67088201638178
C         -19.93256748250109    6.54924524704139   -0.24988957329663
C         -22.28985284788750    7.59461923190575   -2.88854392556285
C         -23.64113912675142    7.96725177559013   -2.77071040517784
C         -23.97527192244567    9.05609387381777   -1.95043890233843
C         -23.00803509583251    9.77744600573404   -1.28428144906142
C         -24.60346773705701    7.25775848267141   -3.56413236757320
C         -25.93881980403098    7.47525835344668   -3.63278877245789
C         -26.82416290372038    6.76334989781147   -4.48170086179785
C         -26.58575318293844    6.10020449352045   -5.65023496873352
C         -25.47017451232981    6.06311387126943   -6.57232823056918
C         -24.54813519904026    7.05189323126195   -6.80649849886085
C         -23.52592957155395    6.96525620010976   -7.77267229519537
N         -22.65462761042422    6.93981217166849   -8.52032070320671
C         -24.53653677802825    8.30484621103502   -6.16237730381225
N         -24.48466641083888    9.35715494548470   -5.70659348189494
C         -25.64176186761286    4.88091827014373   -7.41425937385743
C         -26.93093072547542    4.33988155252437   -7.18403291711797
C         -27.60169147662005    5.12391922904003   -6.12761834769374
O         -28.72624260486997    4.98247954022348   -5.70310537656441
C         -27.40706893048613    3.24849938187657   -7.86876250146865
C         -26.56713535496005    2.65583094566094   -8.81765502638713
C         -25.27413389716305    3.19167387278103   -9.02616691449656
C         -24.79497274015730    4.30018580891583   -8.33902972326865
S         -24.39949715832231    2.29985329065690  -10.23416077742022
C         -25.76668642284670    1.23824055336039  -10.44533724865880
C         -26.82292102069178    1.53209394994720   -9.65086829339047
Br        -25.66838956325969   -0.15814914852082  -11.69390271455980
H           1.03322143348918    2.68994296307937   -6.11266764853397
H           5.71612317620721    4.13665744193066   -5.07662819984728
H           2.25353333968070    0.89886309926958   -7.89423976991646
H           2.35672421475394    7.49386660100867   -2.33785390121243
H           0.66339938776012    9.12262206873340   -2.15962224217314
H          -2.60884013285496    5.49569184042968   -1.27193672202640
H          -0.33446751407338    4.95492881889730   -2.00942525798215
H          -1.70839293313134   11.69877049159261   -0.00117397495126
H          -0.19058219986855   10.96806818496052   -0.52533071771226
H          -2.13331256916538    9.73775900747787    1.49010420512213
H          -0.60337092597637   10.52882950118284    1.87608740906331
H          -0.60965756659460    9.01541208395142    0.97007972720060
H          -0.94904817348854   11.07681298165293   -2.87045466848666
H          -2.46484737875408   11.81033891479105   -2.34317444991341
H          -2.23126226146464    9.24419864520016   -3.99075711450185
H          -2.69284716091091   10.83191986259709   -4.60687401332380
H          -3.74340109113644    9.98727397974639   -3.46825345081173
H          -4.26650565855542   11.50007948795191   -0.44959927916599
H          -6.72112784175185    8.02821435287222    0.07380267878625
H          -4.86136972891598    6.57414449215123   -0.58984861566570
H          -6.43050278444811   11.74547043094952    0.49822037994841
H          -8.34306633187343    9.43810805954564   -0.13338486373031
H          -8.25753208455771   13.12697599746754    1.44311126907944
H         -14.59110206056901   14.45155831997038    1.90047734650786
H         -16.74754158456802   12.95363156282253    1.08832681624332
H         -15.75327616580743   10.37952140330426   -0.23869870706743
H         -17.23929653052393    9.04639130878920   -1.39143961227544
H         -21.09838091189840   11.67035508036424    0.29345746502898
H         -18.81115399085321   12.30750051790062    0.90105731481166
H         -19.64277862004504    7.42779676248044   -4.28834936124254
H         -18.18146803784806    8.17810303250566   -3.64499288065277
H         -20.73555144601871    9.66488185828621   -4.43604303288384
H         -19.22927773826542    9.62502216389417   -5.35120191293505
H         -19.28334244968129   10.42046822450189   -3.77641704192751
H         -18.33336972874373    6.68258423851175   -1.67977124149587
H         -19.81631257070414    5.96986705176643   -2.31678612206316
H         -19.53548704142830    7.31169835316442    0.41660303184157
H         -19.62302467252786    5.57427437713417    0.11947492539330
H         -21.01887951753479    6.59978244074676   -0.21959262190954
H         -22.02378186029252    6.75530741340919   -3.51595116087328
H         -25.00901987337256    9.34608206790406   -1.84977712731614
H         -23.28322815619447   10.61894003909615   -0.66646080325872
H         -24.19144843688366    6.45565215764429   -4.16635956622780
H         -26.40367234070223    8.18488210196629   -2.96333530356940
H         -27.85171019563851    6.68265734375958   -4.13716017847112
H         -28.39733652167636    2.86455782686694   -7.68053485269838
H         -23.80084193799827    4.66909454681002   -8.52952700182882
H         -27.74563737466325    0.98118451895879   -9.65115223473738
