125
 SCF done       -198.760527268440          0.000674093960
C          -3.06902980824640   -2.30906105201020    1.27301283709956
C          -3.23189478224420   -2.60023688597680   -0.05720034679891
C          -2.98977870076678   -3.87100832500183   -0.62111920701998
N          -2.81444784917499   -4.87736748995339   -1.14518739361499
C          -3.61808468033380   -1.70134467218733   -1.07493318919449
N          -3.90436109928491   -1.05114750805816   -1.97831124966154
C          -2.56748426044127   -3.24535069981195    2.27001352694388
C          -2.36163261304943   -2.54245575532612    3.47951418472861
C          -1.87783681411552   -3.14389741768041    4.61577043789761
C          -1.58932992407282   -4.51095968991213    4.55691178901916
C          -1.80722923992577   -5.20913373823324    3.34530854119518
C          -2.29179551377028   -4.59868424285737    2.19572287186622
S          -1.39342697587701   -6.89071754008101    3.49318638978294
C          -0.93830951515688   -6.63549747187782    5.15690953097245
C          -1.08745790740694   -5.35869217400281    5.58222713613853
Br         -0.30953714194075   -8.07968170511512    6.17546157402729
C          -2.74799096226456   -1.12712191134592    3.30584831402255
O          -2.64065394738996   -0.27186782118958    4.15993937327522
C          -3.27806696608405   -1.02026800453409    1.92606915124729
C          -3.95690734681670   -0.00580168534358    1.31087769633233
C          -4.28875010030413    1.34157617462742    1.64899881330990
C          -5.10138475497266    2.02402471680927    0.71324129035946
C          -5.44407675822406    3.33239653317519    0.92208000855225
C          -5.02335921146606    3.99355954501397    2.09432309510118
C          -4.23041251996128    3.33458401168506    3.02607830141467
C          -3.85735993184670    2.02810663348306    2.79742410041985
C          -5.58679670807942    5.32102888980836    2.10279789258685
C          -6.35904278837556    5.48495539081073    0.94042985625679
C          -6.29394078127269    4.24755042339219    0.07093222323260
C          -5.59339584526571    4.64161640517835   -1.24945782775644
C          -5.23926295329015    3.49694814831977   -2.18954139211875
C          -7.68861346818192    3.65586880686591   -0.18908525205685
C          -8.45211479723378    3.36989697701376    1.09901269963941
C          -7.03405761298399    6.65932160236735    0.71573690105171
C          -6.97807403207923    7.68945305161799    1.66479381839824
C          -6.18400973006941    7.51919985742061    2.80571104195823
C          -5.49063804699716    6.34894662624404    3.03099450390617
C          -7.76473051927553    8.88616716323087    1.43456695520220
C          -8.12822958355416    9.76388779056173    2.37803181463551
C          -8.98510904995331   10.91956775782859    2.13447356968247
C          -8.76435926047382   12.19776460195519    2.66968936096350
N          -7.70969260118810   12.69348518893172    3.40538744364890
C          -6.54625827243644   11.94257949491411    3.78836649920864
C          -6.67669882206404   11.30187559419176    5.17029043950902
C          -7.91386385808716   14.03816487507510    3.64145065603941
C          -9.13895697489010   14.41865923905951    3.04005566002705
C          -9.67721516031249   13.24719252317711    2.41474370918578
C         -10.81465125940721   13.04397225283777    1.64655906623193
C         -11.02614738152802   11.78947427359265    1.11174880438730
C         -10.12464760064864   10.76065816984020    1.34724202496121
C          -9.59906635751550   15.72618341740331    3.08574483887239
C          -8.82300928190713   16.66592590419552    3.73149192676106
C          -7.61582626587821   16.30232083268422    4.30957387791382
C          -7.11635467188048   14.99852479363614    4.28860292192817
C          -5.84724683023252   14.73415275943420    4.96084388813100
C          -4.83218115719700   15.60457739677699    5.01282173366809
C          -3.63188291086233   15.41016809751563    5.80873686635448
C          -3.11087793479799   16.46379470388045    6.60132044508180
C          -2.06696532294721   16.08696380746803    7.39115516172248
S          -1.23555487312823   17.12042346491769    8.52882523999888
C           0.13303208723374   16.04416286918358    9.03987442112475
S          -1.67426661629510   14.40933614070245    7.17133545504203
C          -2.93850836540513   14.22930575061093    5.97935544305218
C          -3.01740130603504   12.99310488198393    5.25405006653801
C          -2.65459246108617   11.74104009116226    5.70849978593206
C          -2.79260404408121   10.80664307467236    4.63277885341351
C          -2.53684785214166    9.46300855970470    4.54892336853735
C          -2.73788577091046    8.83310575680887    3.30250086729479
C          -2.50049907932363    7.53653172497951    2.87908363274564
C          -2.82651151860001    7.43169999123942    1.48611491834801
C          -3.28262964112248    8.66162880815396    1.06240952781788
C          -3.22796055046352    9.57920605738514    2.16211142014001
C          -3.48038980127432   10.92122755534366    2.24344400468850
C          -3.25220129052293   11.55684378129703    3.48298444245616
C          -3.38151275296765   12.88042364239574    3.87155089100927
C          -2.67455675889581    6.26939852669474    0.64692964421323
C          -2.23995756631765    5.07439765066952    1.03663621656419
H          -1.72824996425310   -2.57722998409482    5.52146275118732
H          -2.44317163385676   -5.17641511784381    1.29966609972201
H          -0.85445551260257   -5.02658147380579    6.57739816944416
H          -4.34979193545909   -0.27642858425973    0.33675461389307
H          -5.45394047569300    1.49171566569006   -0.15773617543013
H          -3.91129727422738    3.83978118978888    3.92537474739452
H          -3.23721896505288    1.51823419258687    3.51442101572252
H          -4.67743829815613    5.17520274652313   -0.98901848609949
H          -6.24811772353204    5.34306147446815   -1.77194310381207
H          -4.49613889484676    2.84085911953843   -1.74530303794421
H          -4.81922312264142    3.90433271331508   -3.10679655248772
H          -6.11443052458419    2.91026986403384   -2.45509694606643
H          -7.58346966485627    2.72873562290149   -0.75371106949512
H          -8.25923964424726    4.35839528229545   -0.80003914343104
H          -7.90877417462415    2.65939759584111    1.71846202950535
H          -9.42859690058545    2.94939141182614    0.86985207567812
H          -8.59629872646971    4.28291136018070    1.67271179899168
H          -7.63599676472944    6.79188417253303   -0.17223576500628
H          -6.09723127942573    8.32432045684910    3.51952946415908
H          -4.88808968061195    6.23507385416144    3.91934795894408
H          -8.09189948480494    9.04386312085861    0.41436926574032
H          -7.83272660874212    9.58805957381028    3.40159989120618
H          -5.68656553683643   12.61527728308804    3.77751133036375
H          -6.36930312736467   11.17045454224378    3.03340371679169
H          -6.84912845110448   12.05769197900831    5.93323757805124
H          -5.76118827475303   10.76545857741445    5.41015886739527
H          -7.51435586600386   10.60849804321868    5.20561749008335
H         -11.50775438543737   13.85175562180468    1.46947998071154
H         -11.90029374284432   11.59822290185718    0.50753125164708
H         -10.32489433452288    9.78234557057469    0.93567414278973
H         -10.53858044505369   15.99245193310685    2.62683333060288
H          -9.15204353120269   17.69227889341280    3.79495449445235
H          -7.04563608766360   17.05702479211460    4.82973710241898
H          -5.74556075063367   13.80681130879012    5.50418231852949
H          -4.90358831298505   16.56168974423963    4.51258345767902
H          -3.51256097687009   17.46088330195598    6.60368178739674
H           0.73653769869397   16.62470077498464    9.72996682052894
H           0.71858212292266   15.76343827555826    8.16900192142102
H          -0.26379929083467   15.16237422028571    9.53531294192767
H          -2.31660278495271   11.50307337804711    6.70036594485452
H          -2.17285765116402    8.89898362724023    5.39649418960291
H          -2.11034031449820    6.73799148950495    3.48350554952646
H          -3.61103039674770    8.91015863628888    0.06975178001818
H          -3.82851445096940   11.49064971604883    1.39277665400542
H          -3.64991229137426   13.71185846108929    3.24401902888435
H          -2.93372455244903    6.43255313575372   -0.39263646414170
H          -1.95580809180920    4.86913421824856    2.05390684490523
H          -2.14834359219103    4.25341834765728    0.34663043259575
