115
 SCF done       -194.511541742801          0.000404435038
C           0.24553490814995    0.01177774549704   -1.02817507616363
C           1.08840460901759   -0.07929475037736    0.04887633637130
C           2.18544869226189   -0.96246461454058    0.12007917834194
N           3.09410453766515   -1.65497788979614    0.23395637119380
C           0.95891407505168    0.66057249619461    1.24332935207204
N           0.91176928892002    1.20889908529376    2.25138521126841
C           0.30737034766481   -0.81178512916616   -2.22723945115887
C          -0.82639820674740   -0.53089860710211   -3.02683298902445
C          -1.05260045127549   -1.14695911805725   -4.23350245863118
C          -0.11346431610201   -2.08576155105925   -4.67276165201489
C           1.01807042182996   -2.35890541809344   -3.86751195546773
C           1.24611822236819   -1.73669034158822   -2.64687299655985
S           2.05515731648553   -3.54358235517944   -4.60339765980707
C           0.96903335519310   -3.65453492993403   -5.96323299575427
C          -0.11487907424245   -2.84810914956038   -5.87303812735713
Br          1.37039379081006   -4.82310935687662   -7.37440517294492
C          -1.66159100099149    0.49559837351283   -2.36729197252996
O          -2.69531970639289    0.95345088340830   -2.80098040329528
C          -0.91653463148005    0.87856366082736   -1.13944771114469
C          -1.13014082487246    1.99141892021722   -0.38504247005533
C          -2.27323337734492    2.85854176428246   -0.37240023222402
C          -2.06261286473313    4.22137632727672   -0.08717530279125
C          -3.12814306101413    5.08160045579625   -0.07466526597460
C          -4.43595951733522    4.60321782960927   -0.28829842638122
C          -4.65928191391324    3.25227249694482   -0.52034746048513
C          -3.58145444718862    2.39316668017353   -0.57123240889613
C          -5.35140349561898    5.71801735694312   -0.20063658318829
C          -4.60998457313415    6.88847318482511    0.04260529531614
C          -3.13718511045036    6.57390759299975    0.15704609933782
C          -2.59928543284016    6.92848607152218    1.55644117777973
C          -3.36340451992395    6.23543189929625    2.67817593516284
C          -2.31579120887476    7.31208362538603   -0.91604245280503
C          -2.79027356227931    7.01219398175432   -2.33291179811326
C          -5.23443921595420    8.10520617577903    0.15545383348356
C          -6.63114223024850    8.17954050675836    0.04553400548359
C          -7.35946151263396    6.99907796946515   -0.16103323593481
C          -6.73537356741369    5.77647729749861   -0.29873853526534
C          -7.33799420590337    9.43509974168623    0.15063131501853
C          -6.79440931692284   10.64632435391701   -0.08224056632478
C          -7.47758409114313   11.89141185471991    0.03244005247052
S          -6.69835655023459   13.32988091813694   -0.61438956431766
C          -8.02639280709591   14.30779126498609   -0.11671554576589
C          -9.00467463390483   13.53997004483855    0.52768601766909
C          -8.69851526073693   12.18120568619004    0.60335140466340
S         -10.35359739385300   14.49964754522044    1.07703003256153
C          -9.59883067845212   15.93154681792646    0.42742825652485
C          -9.97432290636432   17.26989042083989    0.38756778877864
C          -9.03940888688234   18.05389983416081   -0.27223884186960
S          -7.66979846510285   17.09267981360021   -0.83908103762190
C          -8.36662395034877   15.65918738547080   -0.18363636214763
C          -9.02980180720290   19.42897318934630   -0.55865720860914
C          -9.91417349272937   20.39114461645218   -0.13841722192734
C          -9.85970272206918   21.75966508289478   -0.50419634172198
C         -10.82864925080744   22.53481102968136    0.05738386153622
C         -11.70137291689683   21.83032342516950    0.91264054925662
S         -11.26041072935233   20.13402320374552    0.95640279945480
C         -12.75264928449337   22.32992349383796    1.65757818732792
C         -13.23803817946589   23.65613123442676    1.69107845658584
C         -14.27929134486071   23.83879641808990    2.54844357566325
C         -14.67525916381615   22.67493056925344    3.25518818996191
S         -13.67090183374111   21.32245109697095    2.75221672768804
C         -15.66625053786826   22.61963240448505    4.20042221504636
C         -16.07658889204193   21.51932936158205    4.98246014042615
C         -15.61696923843080   20.20202159527115    4.99347366278842
C         -16.32217251685362   19.48477704901812    5.99455099506579
C         -16.23224448433625   18.17842889829635    6.41517702192836
C         -17.07054416631987   17.77065059608622    7.46821772637949
C         -17.20707413119053   16.55453876513537    8.11601327281647
C         -18.20641913647027   16.67726636955709    9.13687260450938
C         -18.68644883954953   17.97146495374049    9.11228061454566
C         -18.00457991017268   18.69832392123195    8.08442786331275
C         -18.10239795248528   19.99576621884314    7.66606528249526
C         -17.25609661607157   20.41108422420661    6.61241327893454
C         -17.10048855935547   21.63063155470081    5.99030123115452
C         -18.64433426168365   15.64473974500707   10.04453510841473
C         -18.17493479453144   14.40056555690607   10.08690582333150
H          -1.92641926813372   -0.91094709788866   -4.82045577149849
H           2.12675860317855   -1.97225324495446   -2.07293730519957
H          -0.88386253403836   -2.78999198047299   -6.62161723141177
H          -0.32102720992539    2.30958500368098    0.26353930395872
H          -1.05669535949227    4.57664396580435    0.08609844437758
H          -5.66119957019868    2.87651008895766   -0.66140177575979
H          -3.74773422608954    1.34079783390177   -0.72996079143168
H          -2.66220159532363    8.01042008406436    1.69030620396016
H          -1.54575341225623    6.64621948139378    1.60793305829278
H          -4.41305394103728    6.52079284237742    2.66228176731353
H          -2.94533682844964    6.51491841108846    3.64231898639154
H          -3.29980240319168    5.15427024912910    2.57696115614234
H          -1.26755571260124    7.02296917260646   -0.81491345716140
H          -2.38434101696942    8.38602650562186   -0.73044119214143
H          -2.71304968122591    5.94878144560212   -2.54862785010338
H          -2.18224961895220    7.55436166424029   -3.05344690353983
H          -3.82761886356986    7.31310885513923   -2.46231600011859
H          -4.66236481009249    8.99849829903452    0.35469702392308
H          -8.43610512071925    7.05998641441129   -0.23232554731237
H          -7.31398826740073    4.88191773938898   -0.47409794395430
H          -8.38913969052368    9.36674216694910    0.39638033117521
H          -5.76848326187361   10.71901353286617   -0.41706517925623
H          -9.32946138421231   11.44800019263048    1.06974684800984
H         -10.88907752338365   17.64919629576884    0.80069853040092
H          -8.21720779814932   19.77345242555170   -1.18556275216009
H          -9.10158615891179   22.12510619813870   -1.17427711518357
H         -10.92906925503849   23.59202198716975   -0.11102033407519
H         -12.80989465896696   24.43335620549701    1.08394750324471
H         -14.77595706845194   24.78030186133645    2.70655407882004
H         -16.18653146136424   23.55191832160944    4.38677601119650
H         -14.85777889780586   19.78051259664073    4.36367084454277
H         -15.53933596290556   17.48407621419647    5.96157625448316
H         -16.65433206859421   15.66045180014183    7.89334261306706
H         -19.44424388253807   18.37978175636566    9.75595338069483
H         -18.79334516888509   20.69324546586795    8.11920163733467
H         -17.64004445497979   22.53496724111674    6.21059995517153
H         -19.42041505675034   15.94709395575497   10.73717656318492
H         -17.40359266235410   14.05392792384816    9.42065584812246
H         -18.54862057263023   13.68174870624300   10.79543143853696
