95
 SCF done       -179.450656774672          0.000684299773
C         -15.03661516691224    1.06608651420336   -3.81042500618763
C         -15.56511751395769   -0.09178535084247   -3.30199183709874
C         -16.91839990666680   -0.46724313309267   -3.42499977198077
N         -18.00785576963357   -0.82157686563684   -3.49542214644441
C         -14.81628008472362   -1.05346130821708   -2.59348653084924
N         -14.23972972308748   -1.85877270435056   -2.01336267298666
C         -15.76969130061866    2.08782821280668   -4.55441534011694
C         -14.87261906984535    3.12594932659949   -4.91849895092600
C         -15.26918496010625    4.23421060843551   -5.62765756863479
C         -16.61524107166059    4.32535029601613   -5.99617166999195
C         -17.50306715089825    3.28553740154419   -5.62981600538797
C         -17.10135698983543    2.16393048467526   -4.91262219014890
S         -19.11791241598079    3.59967676666857   -6.18457850725301
C         -18.58806885158921    5.10313894885304   -6.89121851462172
C         -17.26845097867998    5.35834860509957   -6.72159625202002
Br        -19.82419061862208    6.19339869397985   -7.78539707774521
C         -13.53684221385657    2.79462767784442   -4.41340763175682
O         -12.50674112161252    3.45468362671561   -4.53610074292823
C         -13.66446795655023    1.51003799688275   -3.72131094414655
C         -12.58650856446766    0.91565148041481   -3.10854998229219
N         -11.39117146987877    1.51226767906885   -3.14897907595820
C         -10.22918630786257    1.09435518265879   -2.58869780882040
S         -10.13039475910332   -0.36487014077656   -1.65468271147917
C          -8.45051286547813   -0.04014238889979   -1.37742737905698
N          -7.72131793601219   -0.95745885478983   -0.60614900059076
O          -6.54406455552348   -0.71937578237322   -0.41506719142792
O          -8.32875307985855   -1.92377766310038   -0.18345170724625
C          -8.00438296161619    1.11281434087319   -1.96440153569511
C          -9.01464808158893    1.78919013898137   -2.67604972700146
C          -8.85517543853476    3.01638680068479   -3.40863149193430
C          -7.76697966608602    3.81016774088522   -3.37379557883389
C          -7.69461433393844    5.01938423028280   -4.13725898691149
C          -6.71260193625861    5.93709769379444   -4.12537030798341
C          -5.49136392557163    5.90467503269342   -3.26914139871780
C          -6.87983333418709    7.19731927114440   -4.94156314209415
N          -7.52806872875058    8.22035879198160   -4.14238739922868
C          -6.81699824865715    9.04172700817381   -3.31762662173464
C          -7.30098599221349    9.56668281576044   -2.17420442956963
C          -6.65697470182286   10.53783851145489   -1.34425268129948
C          -6.83263792969222   10.55634105608490    0.10711206513453
C          -7.57809937161842    9.75118957975172    0.94727935129737
C          -7.50998050686220    9.97832125094130    2.31551280681660
C          -6.70755908325668   10.98288324914585    2.83267252191053
C          -5.95272264111312   11.79578341198382    1.99663732032007
C          -6.01671970570033   11.57594588805518    0.63526043986175
C          -5.38907428653878   12.26390215524165   -0.48824292549682
C          -5.80422348193288   11.56527872289389   -1.67767145514169
C          -5.31449749636463   11.89455121212022   -3.04724642073061
C          -4.61456330290136   13.37623793536735   -0.37883823813396
C          -4.18586161972665   14.21221184885230   -1.44560970355536
C          -3.37856637406032   15.41281213347416   -1.27691640911801
C          -2.72037473017139   15.81812006929395   -0.14790628518331
C          -1.96643114897464   17.00885222990039   -0.06505845089297
N          -1.34312575850616   17.96366583380207    0.06678277421622
C          -2.66757785887478   15.12180586546007    1.07931078396530
N          -2.55215497382680   14.62426859208759    2.10767850578141
C          -3.36975459370066   16.11645389694709   -2.55891565971573
C          -4.13152524278515   15.33949407536593   -3.47357141315942
C          -4.60488698375839   14.16139554999219   -2.76887306593772
O          -5.34213193868718   13.27082341968503   -3.42614282707140
C          -4.32429451219613   15.71769089679237   -4.78000227436736
C          -3.74175696195859   16.92166922213830   -5.20026407615882
C          -2.98469893960874   17.68309359070442   -4.28424525648288
C          -2.78377817931191   17.29550571977112   -2.96009773220561
S          -2.35890753816869   19.12971302271401   -5.01582959686720
C          -3.11372505043922   18.69705456250290   -6.52422630952669
C          -3.79936311269566   17.52913427109349   -6.48395484601609
Br         -2.92770223107860   19.82320906620472   -8.01362442635570
H         -14.56447505631786    5.00772661304675   -5.88976435318737
H         -17.81615858154177    1.39970638452620   -4.65736628518439
H         -16.77572422893529    6.23855837684495   -7.09222001294859
H         -12.65884642635939   -0.02726130726055   -2.58234126996484
H         -11.39837921212574    2.41173792915871   -3.66569910452472
H          -6.98222389164536    1.43306239875371   -1.88414046426444
H          -9.68628724298590    3.32344006273202   -4.03008863779211
H          -6.92680043144139    3.54795657314748   -2.75013801155746
H          -8.54115722166775    5.19464134334947   -4.79179676582613
H          -5.45970070552947    5.03693206407911   -2.61959558596434
H          -5.45558690079519    6.80217170132746   -2.64892786952652
H          -4.59902595083792    5.90315559597082   -3.89573555464777
H          -7.50184035386948    7.00881285028065   -5.82132836582360
H          -5.91205700778426    7.58309329481251   -5.26851945322245
H          -8.43568467211972    7.94533024343205   -3.78861163187469
H          -5.81855072518560    9.26714409821201   -3.66536067951650
H          -8.25775676045445    9.20765434988525   -1.81482937054325
H          -8.20480241307932    8.96180662704730    0.55833666312549
H          -8.08882182055040    9.36057777276979    2.98665774920784
H          -6.66574778437271   11.13404253208280    3.90108770449392
H          -5.32373608727023   12.56913044360411    2.41171684509773
H          -4.27989367163295   11.53676813964873   -3.16978217082489
H          -5.95121367432346   11.41291929023034   -3.79416967666048
H          -4.36941375582708   13.70828904244101    0.61790150259521
H          -4.90522385477131   15.11514120600150   -5.45958979160491
H          -2.19497841353043   17.91050863926728   -2.30039998910419
H          -4.32482784821124   17.11390771919225   -7.32455709801159
