120
 SCF done       -225.575193237132          0.000210321648
C          -4.71956358675077   -2.62266699795831    0.81564296569763
C          -5.80183267606411   -3.45888396807002    0.89619595989984
C          -5.71122371558233   -4.86600410014525    0.94966792645153
N          -5.70189353309755   -6.01258295017315    1.00298622687035
C          -7.15239255038599   -3.04938238863438    0.91322965639097
N          -8.27430508491416   -2.80377398106633    0.91852546501764
C          -3.32941072703799   -3.04393418068275    0.71514969583635
C          -2.52082405888667   -1.89839624581105    0.51991242115382
C          -1.15544019245407   -1.96809842194744    0.38385507314814
C          -0.55814825934781   -3.23111983157889    0.44121082938054
C          -1.37356314461809   -4.37142902396503    0.64096625684669
C          -2.75350703860961   -4.30021042095306    0.77976163605387
S          -0.43089612833960   -5.83039428364981    0.68768370871968
C           1.02437892411700   -4.90255097854352    0.43912936494973
C           0.81805907952977   -3.56873040128826    0.32724698846691
Br          2.67823842239206   -5.78230451371690    0.35365959822914
C          -3.36566229256670   -0.68726876014767    0.49783482301114
O          -2.97118934203462    0.45137949942228    0.38669341998721
C          -4.75494042521480   -1.16922105431417    0.73198367433144
C          -5.83396057795179   -0.39826396798052    1.03114269488710
C          -5.99189451469263    1.02290523187407    0.88601679815174
C          -6.85069421364033    1.68139297931026    1.78683400078170
C          -7.03832229482930    3.03592192164377    1.67998799188927
C          -6.36781406809523    3.76130616935782    0.67425458708732
C          -5.56049677638696    3.11412984465696   -0.25295660835084
C          -5.38216592135891    1.75139248399248   -0.14590914409671
C          -6.66814394790340    5.16229939684592    0.83782687710689
C          -7.52385361809999    5.31174178186117    1.94660454447660
C          -7.88352277883310    3.95986628624965    2.52754466311114
C          -9.39597935158321    3.74831224291499    2.27605592559684
C          -9.93665414232038    2.36145507256130    2.59744320988939
C          -7.53481886702726    3.85739056340595    4.01969022463384
C          -6.07032231942935    4.17905637792765    4.29598419272533
C          -7.94385844925180    6.55705047869831    2.33589210380801
C          -7.51497952504777    7.69709248480440    1.62443069113927
C          -6.66022130418481    7.52407718370260    0.51650530961058
C          -6.23813418023367    6.27474985091636    0.12252988136983
C          -7.96881484616817    8.98596982118583    2.04938899744081
C          -7.66774652584554   10.16424887062676    1.43071918959178
C          -8.11517371103546   11.43244478831027    1.82388674496104
C          -7.76633275981668   12.56275901571005    1.11237707508540
C          -8.11134493004205   13.91507478387813    1.32522312241459
C          -7.58766704909343   14.77628543013603    0.39793476126249
C          -6.80733447166329   14.13800838369197   -0.58504436495020
S          -6.74628601915529   12.42867789016223   -0.30825975191771
C          -6.12016967887240   14.64150349832734   -1.68939516468610
C          -5.98844115284921   15.94548364302720   -2.17862048168211
C          -5.22405183571267   16.00319293873321   -3.31594915677964
C          -4.73208395338474   14.75762134335715   -3.76384934859029
S          -5.25530279728042   13.49429504160489   -2.69437525459659
C          -3.95388268850506   14.62573145266398   -4.90934452130149
C          -3.39241798933953   13.51952267241200   -5.53847015312493
C          -3.48116937236269   12.15363895179817   -5.12216543142349
C          -2.88957089671809   11.07998618093453   -5.88539393573398
N          -2.98475982300185    9.81656637607588   -5.43668959014555
C          -3.63372773380872    9.57641215047956   -4.32397571077047
C          -4.24918632969642   10.62660850202674   -3.58551368690934
N          -4.13845534535759   11.87829580576806   -4.00624629848150
C          -4.96312369299357   10.32374704678447   -2.41195076801431
N          -5.52730600313224    9.99573174617886   -1.46646979881247
C          -3.73898800713126    8.25207846584805   -3.82561174918854
N          -3.87287141379122    7.21412526291973   -3.35925475798985
C          -2.24934309279163   11.29494680750342   -7.12747130595610
C          -2.11476842030210   12.64999792125819   -7.52682438890070
C          -2.65554582325061   13.72876233302916   -6.74419018708476
N          -2.39437985691179   14.91435355980528   -7.27826819815630
S          -1.54285640357202   14.70982742243051   -8.63068667809861
N          -1.46690385538516   13.09654861648343   -8.59913274183067
C          -1.73907633550368   10.18676499722983   -7.84521125091012
C          -1.42931382881555   10.07233182034877   -9.17059222689516
C          -1.77561457599421   10.86683518271364  -10.32026618196798
C          -2.88464085626452   11.66627020582743  -10.45502637108379
C          -3.18802925788248   12.40857505736850  -11.61138051103628
N          -3.46984389471736   13.05861336866197  -12.51566984483105
C          -3.88681218584384   11.78450857391859   -9.47448646338582
N          -4.74707548944674   11.89238039340533   -8.72035878974759
C          -0.87384196953480   10.48886732358916  -11.40376585048403
C          -0.13550110176874    9.34822278841284  -11.00102046531817
C          -0.50736962304961    8.99559873225052   -9.61295719813600
O          -0.11229422250170    8.05516557040564   -8.96147204619511
C           0.77278900442061    8.72956761167221  -11.82382759253770
C           0.96952224729629    9.26795059359645  -13.10066606576806
C           0.23724568269695   10.41441592913996  -13.48741290853030
C          -0.68894475438096   11.03620822660834  -12.65809412811202
S           0.64276365267138   10.91706792394309  -15.10116594343459
C           1.77133054785812    9.59414601628283  -15.23340772197471
C           1.84433106462256    8.81701081101445  -14.12770783139966
Br          2.74740266262374    9.36591711279788  -16.81917268374909
H          -0.56816969019006   -1.07547616179845    0.23547845564391
H          -3.32958823798157   -5.19683300697817    0.93574782289217
H           1.60256930411942   -2.85097175047358    0.17135905920745
H          -6.69027155244564   -0.89720466371626    1.47112531295870
H          -7.31704895977039    1.11040996239501    2.57582905167169
H          -5.07609176923331    3.66923086387888   -1.04101662026528
H          -4.78226014808788    1.23501013487972   -0.87610036556887
H          -9.59361778942259    3.96482848776397    1.22285500623118
H          -9.93584389918450    4.48866168388528    2.87093085811807
H          -9.49962963137624    1.61162791629993    1.94410082157533
H         -11.01344746751833    2.35281354754815    2.44351341579479
H          -9.74400547306002    2.08806295516642    3.63143874249771
H          -7.74900189146615    2.84655357951304    4.36848471164407
H          -8.17122740595700    4.54664058460322    4.57874607414141
H          -5.41833079056837    3.49515256912941    3.75692576128239
H          -5.86077822375067    4.08725119755453    5.35920055365299
H          -5.83195556292317    5.19373214767708    3.98458523432609
H          -8.59982405310713    6.68120209614071    3.18609045892320
H          -6.31902496849055    8.37913666733942   -0.04250996547641
H          -5.58265251129522    6.16677801422942   -0.72791920295788
H          -8.60656897273438    9.00676244897599    2.92579347873385
H          -7.03611892185707   10.14377448912009    0.55362588875567
H          -8.74947122372614   11.53948202520038    2.69402547103506
H          -8.73417221916868   14.21860200556907    2.14851616299955
H          -7.74608616867820   15.84007905683636    0.40010348049810
H          -6.44228925561175   16.80105363735844   -1.70987454219175
H          -5.00564913058251   16.91258762114293   -3.84819687097205
H          -3.75111315873473   15.55893132044780   -5.42363580542493
H          -1.51924931490930    9.31121720161898   -7.24208174202819
H           1.31519717603860    7.85672420647253  -11.49569369816169
H          -1.22189797931795   11.91054648974187  -12.99336190409984
H           2.48732278440342    7.96061432729179  -14.03692312903780
