91
 SCF done       -179.993955212680          0.000534893332
C          -0.89039794185613   -2.51369107623997   -1.53561913700375
C          -1.14367208219326   -3.85487100267874   -1.42597270898794
C          -0.46895372121568   -4.84963801518943   -2.16198737851976
N           0.04754695860824   -5.69852350221427   -2.73710803226702
C          -2.10514152862414   -4.41278088282501   -0.55849776510711
N          -2.86606599731600   -4.92487648140433    0.13174591108038
C           0.08525570297427   -1.90179039504768   -2.43429239229298
C           0.07073035807119   -0.49868612475424   -2.24549177521348
C           0.86128230512746    0.35978547821391   -2.96750525381932
C           1.67861420412720   -0.18988022268521   -3.95810920048558
C           1.66312014460983   -1.58813503880669   -4.16628163519308
C           0.89344887619058   -2.46098771386654   -3.40701107850924
S           2.68484210231932   -2.04381921620819   -5.49707006853881
C           3.11280619728116   -0.37059250621496   -5.74631997735503
C           2.53200066306733    0.48425211318943   -4.87364349197252
Br          4.24551759560654    0.10223673393786   -7.16428159341292
C          -0.95133463441261   -0.15359039182773   -1.24230817068361
O          -1.14258658327671    0.93381604623664   -0.74337739954690
C          -1.61945365272270   -1.43589117854057   -0.89659379319091
C          -2.78289811683362   -1.48652456566236   -0.19215884748942
C          -3.64613043727387   -0.34258280777925   -0.10523597612635
C          -4.32528431814453    0.01884931820287    1.03377626324661
O          -4.25599915423188   -0.62790721376067    2.19690686309052
C          -4.92246192979133   -0.06017417852792    3.30205809137709
S          -5.20438827930583    1.50764088488656    0.82864370657107
C          -4.68193839510157    1.61656313108830   -0.84093502823289
O          -5.09424750026088    2.59278083322567   -1.65656010797760
C          -5.98304827915639    3.54961011332824   -1.12730373718157
C          -3.88555372186404    0.56976856817358   -1.20316989451647
C          -3.36583865395340    0.36225418489721   -2.54126033650456
C          -3.29186496196258   -0.85864485815107   -3.09120409838989
C          -2.53919392294033   -1.22412607276373   -4.27091805215424
N          -2.54717493863398   -2.53347843582618   -4.55140882684628
C          -1.79418972380268   -2.94655491103950   -5.55082202836093
C          -1.00623438913442   -2.07734196147334   -6.28805057926332
C          -1.05994447091180   -0.72631190965912   -5.92842448287541
N          -1.82803957460521   -0.30971737437725   -4.92394697791609
C          -0.23825306751324    0.25107804538893   -6.62521467864977
C          -0.26101427779142    1.55510006363628   -6.35378810218029
C           0.58285175693431    2.54222769530139   -7.04856783589380
S           1.42927499010208    3.75814634922869   -5.89895073048612
C           0.39030714550913    4.71367967848749   -6.91094541826409
C          -0.13355685075174    3.72287415505551   -7.66037421935291
C          -1.08964704276956    3.71047949548990   -8.74902077151654
O          -1.62084926691981    4.68057409930649   -9.23886072496184
O          -1.31692306762078    2.44729341675010   -9.17292455618163
C          -2.20044556448510    2.33488476961060  -10.28061760264884
C          -3.52880365265427    2.92690291694706   -9.96842136877133
C          -4.34770821707278    3.62041252220116  -10.77205245698828
C          -4.25178615976046    3.98416057300732  -12.17859479273101
C          -3.72006528490252    3.22067128866186  -13.17957367619347
C          -3.67123323735435    3.61830137945624  -14.53348582926880
N          -3.59673923397767    3.90617572067052  -15.64141051190923
C          -3.26966066978816    1.89903347584740  -12.98248541984224
N          -2.94745413177203    0.80406292110596  -12.86555180449015
C          -5.00160001658030    5.21995914914092  -12.34939153932653
C          -5.75346184745301    5.46830762365852  -11.17173310615873
C          -5.45644815302898    4.42842617295587  -10.16924818579743
O          -5.95375384642189    4.27303445842235   -9.08231800076975
C          -6.59821068133733    6.54599255671619  -11.05247418023953
C          -6.69835286218655    7.42176940488114  -12.13822836324618
C          -5.93236349376420    7.17191151254965  -13.30374379760868
C          -5.08371936019192    6.08001016238268  -13.42914761854830
S          -6.20181399936087    8.38389335682669  -14.51778817608094
C          -7.32742608019320    9.19666610645081  -13.46287450336108
C          -7.49282964836743    8.59410348061485  -12.26098633264192
Br         -8.17625743028658   10.76223136988742  -14.04676681458416
H           0.82867170088866    1.42386937540114   -2.79643296992882
H           0.92360922409743   -3.52041082897958   -3.60002504115422
H           2.68786956520207    1.54782163605121   -4.87534990946218
H          -3.12665869261326   -2.40018772935073    0.27312973017827
H          -4.74901208549314   -0.73481039745184    4.13747626460855
H          -5.99665192071706    0.02608217180033    3.11030849698858
H          -4.52069663319006    0.93104563313711    3.53412211259835
H          -6.18492417180297    4.25173872840073   -1.93325388550613
H          -5.53420450243392    4.07743542745448   -0.27938355548215
H          -6.91776703855479    3.08145103389148   -0.80164558953284
H          -2.99531120592451    1.22759016200893   -3.07151094012075
H          -3.74442548070292   -1.70902237191675   -2.59904783847842
H          -1.81729812343849   -4.00996540323372   -5.75339628111508
H          -0.37998843453088   -2.42194957294060   -7.09458978309515
H           0.41117289554790   -0.14202750487148   -7.39642365232162
H          -0.93200048689472    1.92751424105675   -5.59304651805945
H           1.31898810662977    2.07973038117102   -7.70641977870368
H           0.26436503044484    5.77823472470953   -6.88917315478616
H          -2.27916375474214    1.25992487895812  -10.47420613254205
H          -1.74708971140223    2.82351818087339  -11.15170778891186
H          -3.82844507862494    2.85000322156896   -8.92840874492045
H          -7.16439008300440    6.70882081488584  -10.14894288974702
H          -4.51400963046890    5.93193703350218  -14.33175976545060
H          -8.14770443721781    8.96033287561016  -11.49165227575674
