106
 SCF done       -195.690796583839          0.000819321874
C          -0.23052030959676    5.46076857599757   -6.77122806672314
C           0.14106508982108    4.80374159075134   -5.62127083314805
C           1.23251156257375    3.91761534764028   -5.53307368810385
N           2.10500393002462    3.18312644041628   -5.39144469992523
C          -0.49057970478198    4.91382030078969   -4.36700231325880
N          -0.93530275190787    4.94213190859454   -3.30728755527160
C           0.45654356953808    5.34573004667601   -8.05635580316550
C          -0.19112120816549    6.18615029216430   -8.99257638854713
C           0.21642121990951    6.29538017387004  -10.29870960685679
C           1.31984829470279    5.53628499755217  -10.70417809923704
C           1.96264059324269    4.70142706587092   -9.76181774030667
C           1.54995056917524    4.59190992188206   -8.43911198176646
S           3.30314747160109    3.85033116404559  -10.47140650502500
C           2.98296217688708    4.61892936314790  -12.00331395741301
C           1.92929224308221    5.46826533662151  -11.98763854484153
Br          4.06935151928285    4.22439835120166  -13.48192772893767
C          -1.32397677222944    6.87277461841043   -8.33170833162260
O          -2.07442406316668    7.66997028370430   -8.85776826017186
C          -1.33056646766321    6.38008650459078   -6.93952531681310
C          -2.25858159610766    6.73146006725442   -5.98537664872822
C          -3.31443055444195    7.63249270975907   -6.17546382987853
C          -4.20927601045762    7.89801667186535   -5.17284518550053
C          -5.28198245361275    8.79325909867331   -5.28851287046036
O          -6.12787342340077    8.98104334729280   -4.23731567270121
C          -7.06181269219234    9.90350007622985   -4.58178026196693
C          -6.82964169005788   10.30523404657196   -5.89982237934633
C          -5.70054486468240    9.60651669487934   -6.35157413351302
O          -5.13167303330140    9.69812316276486   -7.56317643630991
O          -7.52462143719157   11.16866218589873   -6.69274862281255
C          -8.05221590438823   10.25133838414064   -3.63400524330831
C          -8.90586520638721   11.31162457193615   -3.71873667881394
C          -9.91023146559036   11.59411259217534   -2.77125577881221
C         -10.71956482803298   12.69048225965349   -2.86837651178525
C         -11.76939746478857   13.05730863914734   -1.99988954445455
C         -12.21336297009914   12.36103975846090   -0.91192814093423
C         -13.29225611825310   12.79317295276951   -0.11906116779604
O         -13.94362977466682   13.95706688248153   -0.38945757660569
C         -14.95150422044652   14.11098893885701    0.50848509775571
C         -14.94595687904765   13.01987439606914    1.38218372653486
C         -13.89255663071485   12.18405019741835    0.98774620290180
O         -13.51725270600556   11.01503674192917    1.54887779436388
O         -15.77100530345243   12.75654391727233    2.43488999825844
C         -15.79527553131707   15.23762579628422    0.44590892084301
C         -15.61367828866172   16.24136261525100   -0.46750083261030
C         -16.42274342259672   17.37449998145431   -0.60383093408162
C         -16.14573066761946   18.35707421377766   -1.52542111301763
C         -16.90432180334265   19.50299891909565   -1.74415840582013
C         -16.55733595135037   20.47914709362242   -2.66009309316974
C         -17.26011959575740   21.65880191391207   -2.97681944602573
C         -16.65162192937796   22.44032593676152   -3.92068868381342
C         -15.43272898109106   21.91888843688059   -4.39025485820158
S         -15.08608450705967   20.39277681694823   -3.61056075236460
C         -14.55304679773765   22.46519090683375   -5.31318712274245
C         -14.66735317969337   23.67073320654351   -6.03058473004925
C         -13.60302971611175   23.92555918524424   -6.84705835757595
C         -12.58638224162774   22.94192521154497   -6.81938665297938
S         -13.05288431276258   21.66269842898814   -5.71554841264889
C         -11.41014463539820   23.00756910695130   -7.53808964091800
C         -10.32635148984961   22.11969649160700   -7.57022635111491
C         -10.20383241862076   20.92864665817384   -6.90575276830114
C          -9.06064419567787   20.11107214615686   -6.97494793416947
O          -7.96132124845197   20.45425177924173   -7.69892405375976
C          -7.02979021070090   19.47515872714270   -7.55797644680176
C          -7.53783461448155   18.47966370622757   -6.73026889023024
C          -8.83097463877015   18.88057959393072   -6.35444975931894
O          -9.69186955721194   18.21859583194986   -5.55374199230726
O          -6.96070112220812   17.31655947479274   -6.31608269421440
C          -5.76361873934562   19.57069670848463   -8.19680667056440
C          -5.37485700417001   20.61118534357058   -8.96549501341805
C          -4.09140150091838   20.69449925473325   -9.59583444832963
C          -3.70273177265083   21.72663118301352  -10.34642750499114
H          -0.30052150358252    6.94522582425465  -10.98751738985164
H           2.07459847310778    3.93920097339154   -7.76186557536196
H           1.59273546665595    6.02378155411210  -12.84398497918523
H          -2.18151813098863    6.27615181577594   -5.00594884050690
H          -3.42047156693936    8.12089634345934   -7.13160990562972
H          -4.11208223636234    7.40200704063674   -4.21532778915844
H          -5.64131095628353   10.32229436737926   -8.09786094039487
H          -8.38081850679237   11.35600692880643   -6.29220228958862
H          -8.09094469031217    9.61254590103004   -2.76268914756025
H          -8.81251636509276   12.01839932562464   -4.53435103492827
H         -10.02837997260082   10.90304634456776   -1.94989436334870
H         -10.54783136898737   13.36055771975461   -3.70303662408352
H         -12.28467746124439   13.97987125267943   -2.23101640440007
H         -11.76685887621202   11.42695626771422   -0.60927864062912
H         -14.10615081955168   10.83730086085840    2.29380103689511
H         -16.41469544440574   13.46707947580773    2.52273543951295
H         -16.60987744179118   15.29028486477998    1.15597600143631
H         -14.77173562075066   16.14943780695604   -1.14016952138717
H         -17.28877303121612   17.47668703294330    0.03736969277911
H         -15.25925289181667   18.23656575541466   -2.13725833769862
H         -17.81384451733700   19.65164658181747   -1.17707823875315
H         -18.19488101494765   21.90049739342177   -2.50188680429261
H         -17.04832421729572   23.37341931719720   -4.27920656142827
H         -15.52055974688487   24.31723225807361   -5.92910508961056
H         -13.51541084108632   24.80015892548525   -7.46796360768478
H         -11.31453044912916   23.89213947131609   -8.15650071413262
H          -9.49142923031829   22.41632144625801   -8.19142217699355
H         -10.98995287796788   20.53854189932933   -6.27962730373904
H          -9.25730027929302   17.41020021853348   -5.25219402857438
H          -6.07097627168589   17.25045516881884   -6.67819345192646
H          -5.08572244466014   18.74116565411627   -8.03520744116890
H          -6.06053998949885   21.43225463750776   -9.11787482097460
H          -3.41942546741670   19.86028092751679   -9.43577353449440
H          -4.35130168867563   22.56895977126113  -10.52104911560300
H          -2.73061768114208   21.76330362597727  -10.80582957032802
