118
 SCF done       -215.476491372280          0.000828779806
C          -3.80634825297146   14.74316209555325    0.43137571526034
C          -4.26080112724943   15.70241816150235    1.29965582496502
C          -3.50679404173001   16.81799736621757    1.71562927352245
N          -2.93943068204422   17.74395067172835    2.08774798683177
C          -5.54415865995141   15.69328629311360    1.88258195589263
N          -6.57953040827813   15.72399230231433    2.37767360442493
C          -2.48820190660481   14.71522588518794   -0.19906790132368
C          -2.40332964472254   13.57547345828055   -1.04055892616304
C          -1.27775396911035   13.27398097618859   -1.76834149071223
C          -0.18152578878256   14.13656325136260   -1.66134133268973
C          -0.27472002087609   15.27013229434156   -0.81977859179899
C          -1.41443048702629   15.57573040265611   -0.08392348654104
S           1.19319365985954   16.19763423928799   -0.83166411417390
C           1.90364628792929   15.06665603255575   -1.95238071579065
C           1.08494728758266   14.04540828101628   -2.30060562433644
Br          3.65902681370468   15.33797103909709   -2.55434191961655
C          -3.67056975071431   12.83843141194312   -0.96677660068879
O          -3.96932184100667   11.80284158781631   -1.55632652003289
C          -4.52276974823063   13.58060154656335   -0.03565081714387
C          -5.78376797288169   13.13876776029821    0.29067851865492
N          -6.25849353909348   12.01313813775391   -0.25138603653895
C          -7.45271666485535   11.42154090265813   -0.00330599843057
S          -8.59777460883756   12.10678701094228    1.10774128209463
C          -9.64502075783686   10.75549452643901    0.81866785622429
N         -10.87681448443175   10.72758141908099    1.48988896249379
O         -11.60973321011466    9.77959733639148    1.28348014797634
O         -11.11754266295080   11.66258438717133    2.23169775980325
C          -9.14310461976992    9.84370073106208   -0.06780518672540
C          -7.87378059715556   10.20737427034987   -0.56647878846657
C          -7.11305120111085    9.46566254525437   -1.52665996631373
C          -7.39408330483952    8.19018442580889   -1.88571357794602
C          -6.69197801489833    7.45768114763409   -2.87032268926400
S          -5.58788031012485    8.27686022208460   -3.93145840032804
C          -5.23084658533440    6.84561044379779   -4.82582915083211
C          -5.92907227689338    5.74586434049384   -4.29996370394804
C          -6.76614818659846    6.09115735727441   -3.18951835916633
C          -7.51432181383253    5.05731247104589   -2.56817586785197
S          -8.53406862036469    5.36944785412688   -1.15836167392834
C          -7.43536759431032    3.77707422612761   -3.06074771225504
C          -6.62609526042028    3.46116397617630   -4.16016799013598
C          -5.87637733181548    4.42225797535617   -4.77490463790379
C          -4.37719658498009    6.85050618064079   -5.95577489880377
C          -3.86226589666939    7.95780921653999   -6.53616068373664
C          -3.06498165691608    7.96639678678070   -7.73626017633942
C          -2.40013249790805    6.82018657378567   -8.20039109567876
C          -1.72075810401836    6.86496841982097   -9.39148275921907
C          -1.69618802613199    8.04146538028553  -10.16110592741656
C          -2.31811703033476    9.19328568133715   -9.69628602353544
C          -2.98189738457594    9.14846044941524   -8.48834115251501
C          -0.94792030496759    7.78203386898824  -11.36949833927570
C          -0.48519815585373    6.45238396650661  -11.33646383087058
C          -0.98168693312412    5.74708617288072  -10.09551258174051
C           0.16941456912860    5.19151791899907   -9.24334839479083
C           1.14591995345860    6.27859866664634   -8.80877788132935
C          -2.02420021481429    4.65412657422425  -10.43157903297789
C          -1.54510104812040    3.52626923136662  -11.33556772849930
C           0.31792924301174    5.97853866457506  -12.34291065774080
C           0.60188522142094    6.79091503886553  -13.45545928313192
C           0.10058424850811    8.10098859193907  -13.48834619745548
C          -0.64805422509589    8.60617510059413  -12.44748812972061
C           1.37349192093156    6.22413516710347  -14.52613850619634
C           1.45076853947289    6.68758802450107  -15.79696023231071
C           2.18527401491578    6.00978756083535  -16.79815000796470
C           2.13527988253555    6.20737207612973  -18.14628656284111
C           1.22747468341983    6.97129947227227  -18.97267716955524
C          -0.08694592115121    7.25576178741680  -18.70097024426473
C          -0.93009264543152    7.97531151053293  -19.57222061985489
N          -1.65228691004823    8.57600955934163  -20.23212941460078
C          -0.79436181173536    6.76626803722078  -17.58297120854229
N          -1.44125513288944    6.35126326451499  -16.73017171692281
C           1.88273035548279    7.17669309615813  -20.26163344176577
C           3.05412970996855    6.37895973122162  -20.30773245767324
C           3.22279902442814    5.68696481243262  -19.01305387888435
O           4.08672122932904    4.89859264073954  -18.70119952393529
C           3.86023499775468    6.31613171576996  -21.41796799893966
C           3.49921757715869    7.08200743468597  -22.53171480934444
C           2.33659115754334    7.88652452488203  -22.46993394390320
C           1.51702643972614    7.94618104151420  -21.34934615212502
S           2.08152339133075    8.75627995460427  -23.95229391350518
C           3.51620216387006    8.03161716360706  -24.62860917002798
C           4.15666021877952    7.18473676067892  -23.78841795419514
Br          4.03272605437873    8.46286406876599  -26.37936491316317
H          -1.24175172747612   12.39983806056754   -2.39935478329459
H          -1.43571106859104   16.45067409546947    0.54387143020980
H           1.36173218110327   13.25940988279982   -2.97920863675074
H          -6.42308286447394   13.66520510791996    0.98730807146781
H          -5.59675065512059   11.55385522182370   -0.90376262347035
H          -9.68844313498873    8.96152266502875   -0.34840859238332
H          -6.26380129894638    9.95819443057946   -1.98170241422330
H          -8.20646393185626    7.68109238482097   -1.39404686954548
H          -8.93718722321992    4.10779168966806   -1.00724949244688
H          -8.00471256074615    2.98671632104491   -2.59274155286626
H          -6.60142091794560    2.44048370141668   -4.50920161256708
H          -5.24874628073010    4.17408232088065   -5.61536076166973
H          -4.18271095877538    5.88188293240979   -6.39292065693296
H          -4.11703141878924    8.92537446010538   -6.12109159987553
H          -2.41005413424298    5.91617736827671   -7.61076551938519
H          -2.28715942796263   10.10665754044056  -10.27114307861356
H          -3.47853740334875   10.03381887741908   -8.11802275926829
H           0.70882359821324    4.43761812018144   -9.81790765194445
H          -0.24875866582134    4.70481507436754   -8.35967323728290
H           1.58496494126714    6.76835033128614   -9.67535498235721
H           1.94793044491020    5.84683271928347   -8.21447624094819
H           0.64078840431328    7.03281972199808   -8.20926649192051
H          -2.87880861293045    5.14210451873639  -10.90741465599072
H          -2.37125982212950    4.22999411312528   -9.48644739222785
H          -1.31496930675626    3.89742546573246  -12.33020964143822
H          -2.33471604841466    2.78384992597617  -11.42989246056270
H          -0.66764118319433    3.03230266054871  -10.92631810822881
H           0.72755404635688    4.98025122883704  -12.30730007700208
H           0.32756106562260    8.73487770026825  -14.33129085340687
H          -1.00280802197103    9.62553396285288  -12.47327698238339
H           1.86869382727191    5.28637138801720  -14.30146061152910
H           0.92594277365913    7.58863972374010  -16.07716053333620
H           2.92043602533902    5.28275574992026  -16.46772323482589
H           4.73992224681191    5.69200408417147  -21.42975748094810
H           0.64363032552657    8.57706719415309  -21.34701785818259
H           5.05558457679169    6.65325660474339  -24.04222254571716
