102
 SCF done       -188.537897830299          0.000744692530
C         -11.08936315975768   -6.44274665319907  -10.38538811295565
C         -10.33061539422957   -7.10597112907893   -9.44622846735969
C          -9.60056568665939   -8.28185940357145   -9.70705439422853
N          -8.97749997714412   -9.23750413604564   -9.84548970918553
C         -10.15567428742554   -6.73614392720237   -8.09869048518690
N          -9.93809390511508   -6.52816819579578   -6.98838750449167
C         -11.23892411814487   -6.85066648423837  -11.78184786054498
C         -12.09128419508211   -5.92739276189751  -12.43473774718293
C         -12.42405580521116   -6.03587571524014  -13.76160898478406
C         -11.88877164082010   -7.10898300995819  -14.48353238902223
C         -11.03924550700158   -8.02591249158222  -13.82371866589634
C         -10.70313740098559   -7.91592152237885  -12.47910047780827
S         -10.48687771795163   -9.27414949507208  -14.90041909067560
C         -11.39340399553265   -8.55455607438089  -16.20420792274895
C         -12.07504468898565   -7.43855992697422  -15.85438504495431
Br        -11.35350653724452   -9.34458296922370  -17.90583008140828
C         -12.51812903019132   -4.89215442347973  -11.46772509322097
O         -13.25390678208276   -3.95183846117314  -11.69901209173323
C         -11.86792438100434   -5.24859603279146  -10.19462750394975
C         -11.99872405557750   -4.53635184722608   -9.01882464125023
C         -12.75601437556725   -3.38418197144784   -8.84412656003891
C         -12.82314798837485   -2.73538694816882   -7.62405433724522
C         -13.54708667670118   -1.56549255432751   -7.30063518393990
C         -13.41135931426077   -1.16339728158544   -6.00190676642610
C         -12.57217022432885   -1.99917666155199   -5.23871650101572
S         -11.96119016861129   -3.31397263886308   -6.22058421062100
C         -12.19688841350908   -1.91736543940810   -3.91041445131818
C         -12.53605566328088   -0.96792894690303   -2.91880797149952
C         -11.96291009078576   -1.21400286944314   -1.71034559921670
C         -11.13421495395113   -2.37334706817199   -1.66429125454513
S         -11.13171260795401   -3.12699220541586   -3.25273289882600
C         -10.46436898706654   -2.81702055376864   -0.56019761816543
C          -9.62322274806896   -3.96488641916860   -0.40073455141270
C          -9.08359085395928   -4.21822673604219    0.87536049389445
C          -8.27676158998391   -5.31505276998722    1.14599075783683
C          -7.96486341036074   -6.17071602030405    0.07775923327293
C          -8.48685350242670   -5.93569592560764   -1.20819219651972
C          -9.30958505185719   -4.84948251710873   -1.43810426245972
C          -8.06983809628860   -6.93731059645309   -2.15779978821420
C          -7.24731493835290   -7.90623538547548   -1.56485822055480
S          -6.97847694114499   -7.60136562945242    0.14382673491732
C          -6.72976951348436   -8.96416229531979   -2.29190503757319
C          -7.04665449658099   -9.05096024965482   -3.63529492009434
C          -7.86376847639885   -8.09994242026942   -4.23873217186971
C          -8.37654782518363   -7.04500121768239   -3.51127864642760
C          -7.77789791153666   -5.54546577437124    2.48668937005519
S          -6.15857837683380   -6.05756028423594    2.77137736172693
C          -6.32263001190481   -5.97991645873711    4.49421629701900
C          -7.63016826814386   -5.61785905245724    4.84058068660066
C          -8.45431473454849   -5.36612447514612    3.69145524003776
C          -9.82261796227719   -5.05462096806536    3.86101504363944
C         -10.33031852235930   -4.97003620631376    5.12080344636374
F         -11.62967272069953   -4.67387387225693    5.30300409892675
C          -9.52078567749801   -5.22034646489895    6.25395401923335
F         -10.07851876760109   -5.15567706888224    7.47664400743257
C          -8.20546483437865   -5.55303015156659    6.12673856092425
C          -5.17465948772625   -6.27761860641022    5.27664322034970
C          -4.94385914805269   -5.92197442188756    6.56053447933354
C          -3.77529895664189   -6.28454004556026    7.28739026875818
C          -3.47786535877836   -5.92118290544159    8.57488866023763
C          -2.25647759460412   -6.45201024553156    9.04570767473526
C          -1.62195142028252   -7.24527181472132    8.06357455488894
S          -2.53016514670845   -7.31303408042777    6.58979271813131
N          -0.47550256057226   -7.88103701256481    8.22067496621761
C           0.08922367892220   -7.75280771402459    9.39918330818151
C          -0.42537394612935   -6.98711688526425   10.46556352817311
C          -1.61103081652766   -6.30635184761940   10.29361865549740
C          -2.22684940648019   -5.47306570164450   11.37904172413796
C          -3.25345629733383   -6.28983347102862   12.16702114037852
C           0.46346874175611   -6.97264252053717   11.67449360017321
C           1.42298446017022   -8.15347863869385   11.54948060312021
S           1.60048272990034   -8.54328425678823    9.76413037236411
H         -13.07609509612147   -5.31569660539959  -14.23059483539749
H         -10.05052307013340   -8.64175008679167  -12.02379846566746
H         -12.68402598719354   -6.86948673694205  -16.53291128662010
H         -11.46554341657616   -4.90024650716373   -8.14811618686351
H         -13.30879028909992   -2.97902647687733   -9.67865670304516
H         -14.14497514450669   -1.05760862597705   -8.03633295255717
H         -13.88944970996253   -0.29676674460738   -5.58089567653364
H         -13.18766084124854   -0.13801959522535   -3.12587067557877
H         -12.10513726135889   -0.60098923151634   -0.83756118046020
H         -10.59729921608985   -2.21559579246610    0.33168062150639
H          -9.28373389468967   -3.51700476781627    1.67131132499261
H          -9.69062350780153   -4.70502408490924   -2.43269925491234
H          -6.09763445317859   -9.69816357700601   -1.81696817252351
H          -6.65464711776255   -9.86841816776364   -4.22108171672890
H          -8.10367500517890   -8.18396573931146   -5.28740322296758
H          -9.00957492441402   -6.31429235845571   -3.98978387168442
H         -10.46978214492484   -4.91823686026913    3.01042459600946
H          -7.63764583437549   -5.79632365764677    7.00775845306075
H          -4.39150717526751   -6.81575161805114    4.75607464742387
H          -5.64569692223032   -5.30404780478931    7.10077307832137
H          -4.12707422720282   -5.29522763443154    9.16093779861236
H          -2.71842337318447   -4.60634080233904   10.93419160298199
H          -1.45095660601586   -5.11002594264079   12.05439162327254
H          -4.04207473460177   -6.64590168264061   11.50838221267782
H          -3.70076572114816   -5.68049909850822   12.94857854486691
H          -2.78149051645416   -7.15418687950466   12.62906648862833
H          -0.10701357102276   -7.04891978179172   12.60077021587487
H           1.02177271474911   -6.03095465393970   11.69470872773908
H           1.02323641831441   -9.04721254771207   12.02982413286344
H           2.41135411985062   -7.94474701050263   11.95119472309734
