84
 SCF done       -181.878793008659          0.001897830451
C          -2.03553330208288    0.40714125060818   -0.00724499222521
C          -1.60528797359700   -0.40079100449441    1.00691034522982
C          -0.33814376789436   -1.02425185851453    1.03546350116202
N           0.68332295517557   -1.54123506706550    1.10342968719506
C          -2.38625298006058   -0.73535251888973    2.13471103217816
N          -2.99516055954465   -1.04200273541157    3.05707768229622
C          -1.29473087376294    0.74553997307351   -1.21459722148802
C          -2.13365805905771    1.47771735986477   -2.09092354568345
C          -1.69816863347399    1.97212222390615   -3.29729397099392
C          -0.36002084439098    1.75980653453403   -3.64262553468311
C           0.46648579919963    1.00903357161026   -2.77034636791820
C           0.02159259379953    0.49195368902513   -1.56215494450875
S           2.08127893603853    0.86076625859123   -3.39504777716548
C           1.64583399637838    1.83427202975937   -4.77522566309929
C           0.34838119253373    2.22545409245458   -4.78381358399544
Br          2.95091909372867    2.26096942572207   -6.04620250509797
C          -3.45618980341358    1.65991929188029   -1.46527203888186
O          -4.46864441587788    2.06891612799273   -1.97534448905273
C          -3.30919488681711    1.11595418990887   -0.07488356979552
C          -4.21164661662401    1.33665948998424    0.90364582750080
C          -5.23016342322363    2.35701901536450    0.75724158435726
C          -6.58137895476669    2.44867327609483    1.04935614389567
C          -7.52918671943402    1.44988531214971    1.56828271249887
O          -8.64585467716213    1.72951667247336    1.90921356458423
O          -7.08328541610148    0.18329862785403    1.64523755249951
C          -6.90930604415922    3.79912709267022    0.67733033065903
N          -5.81483415287178    4.40574112461947    0.25361289314670
O          -4.80201829212301    3.53968675751996    0.29220906061169
C          -8.15931875649145    4.47921742382343    0.65216578146181
C          -8.23661869043002    5.71012585596681    0.06952112286762
C          -9.39679245458827    6.50622578870689   -0.17994297491450
C          -9.15836839118709    7.61889170967013   -0.91921510617091
C          -7.79089694843846    7.77904674330520   -1.27028472380600
S          -6.81742280824143    6.48410548523328   -0.59525900930665
C          -7.17472426960931    8.69440286519256   -2.09248924441345
C          -7.71810264848060    9.68109855944351   -2.95461863406926
C          -6.80358338858480   10.23398826877175   -3.79415841484033
C          -5.48412680311953    9.71674635285363   -3.63719207600129
S          -5.43689102666809    8.59215134926442   -2.29881996736439
C          -4.40896670355379    9.90388617551187   -4.46463592069006
C          -3.20098083610086    9.20214805724971   -4.25719950788991
C          -2.18604719079876    8.80998929620391   -5.13846345196989
C          -2.13273553263011    9.16525982416208   -6.56187897204118
O          -2.70822815996743   10.11968536996143   -7.01190958799233
O          -1.40873444827270    8.35921681766547   -7.36013941879141
C          -1.35319007718350    7.98074794243594   -4.32900468075759
N          -1.81940779673593    7.93356796363464   -3.09620920257660
O          -2.94221884198136    8.66771378204790   -3.04955441518976
C          -0.15524740811173    7.26141294676557   -4.67947524072264
C           0.35608931904369    6.17946544711022   -4.05669664508321
C          -0.09950351802148    5.38371123611116   -2.92161110291375
C          -1.39339079897955    5.15805622028195   -2.53973076477605
C          -1.74490483733288    4.43849199544224   -1.38314988739059
N          -2.04497970087223    3.85499108558554   -0.44039600717166
C          -2.50701847543292    5.52177200051120   -3.33122584825107
N          -3.41213005146701    5.65638583043741   -4.02440809725132
C           1.07134091186482    4.70225924294671   -2.38781446357495
C           2.16504726754896    4.88491336341537   -3.27489968038336
C           1.75049466182637    5.75072735488905   -4.39091122576112
O           2.38494296774655    6.07776613216930   -5.36391543995630
C           3.38991151379325    4.29213428258956   -3.07567886714500
C           3.54031084126760    3.46391664975625   -1.95937119067260
C           2.44443682266046    3.28765971081247   -1.07695475630116
C           1.21445137652535    3.90092110062762   -1.26807750249586
S           2.82971501823185    2.18573372370998    0.20947285250126
C           4.43382157624688    1.97421576668416   -0.44693998414975
C           4.67117861810413    2.69884994041108   -1.56725844414151
Br          5.63283559907612    0.81587903977150    0.40426673002563
H          -2.36556735286044    2.52317197043730   -3.94235875707725
H           0.69290171501974   -0.06386083602015   -0.92915708601228
H          -0.09198150975826    2.82214302737066   -5.56231161960010
H          -4.13420355940168    0.85850947947126    1.87214406203719
H          -6.18545111935390    0.06269669654953    1.31111858080129
H          -9.02599999789338    3.97422710150729    1.04680887094092
H         -10.36498341189170    6.20137042436791    0.17683168166780
H          -9.91432653468883    8.32008658051700   -1.22651089009989
H          -8.76791980300074    9.91507599353399   -2.95869450277202
H          -7.02522839550877   10.96808678775241   -4.54818441795960
H          -4.48410368752700   10.50279553380618   -5.35794803183164
H          -1.07007671568276    7.57522570302769   -6.90941092897870
H           0.44714982021155    7.66638855499677   -5.48745555153019
H           4.19886273303011    4.44664929615321   -3.77260384497166
H           0.41621531405350    3.74696266625587   -0.56196567017950
H           5.60356240403091    2.68763211611454   -2.10136363845159
