102
 SCF done       -176.888177733320          0.001235681957
C          -8.13779129961023    5.50226126419385   -5.15527343708422
C          -7.16780924352166    6.15510666849010   -5.89937422448872
C          -6.17536436364966    5.50281505743006   -6.63304167637939
N          -5.38557294464167    5.04493127440389   -7.33940489326193
C          -7.10711901975890    7.54132027400494   -6.11120302806931
N          -6.98303317169949    8.66401986077368   -6.33106334431574
C          -8.17210538864467    4.08266689235131   -4.86445332636292
C          -9.38683199960739    3.77199368946358   -4.19286330274183
C          -9.70566954961105    2.49836559554862   -3.79424391271306
C          -8.78589760127145    1.47774972027336   -4.06536327681787
C          -7.57484793411178    1.79738012996390   -4.72461558418993
C          -7.24951673679811    3.08455775572672   -5.12874783785924
S          -6.58387221281977    0.38678941737183   -4.95567332426156
C          -7.79739574086640   -0.59874151283102   -4.17857033796593
C          -8.88579442570671    0.09224241551325   -3.76503910689668
Br         -7.51030430099415   -2.44419737405266   -3.99136428713236
C         -10.17164890714041    5.00793451652432   -4.05209314766527
O         -11.28849560054476    5.14076826138194   -3.56905562635150
C          -9.35261324542646    6.07219129027130   -4.64396999815629
C          -9.80943383725755    7.35648434953672   -4.78971423274657
N         -11.05853495729354    7.70714259504949   -4.44042440445405
C         -11.69105818805948    8.84844759313086   -4.84713000571555
S         -12.96834800385344    9.49052282693584   -3.85727020914879
C         -13.11189489031253   10.83759487619405   -4.94017899791026
N         -14.09252034171738   11.79163203245715   -4.67260468824139
O         -14.19171160863022   12.73719719221565   -5.43853888375156
O         -14.78738407909240   11.60767442445473   -3.68292450619195
C         -12.22415264595265   10.78697684733153   -5.98603618761164
C         -11.41586576850447    9.63851034595436   -5.96757670390039
C         -10.48867110827483    9.32726078640221   -7.04551922668058
C         -10.28570971056601    8.09899702954960   -7.54693354449027
C          -9.30553978866488    7.81796367521831   -8.55841702789212
C          -8.93458958717730    6.60773618270801   -9.00169313197784
C          -9.50321255182971    5.29752338282950   -8.55440700354755
C          -7.83267814709626    6.49301559276379  -10.04097025433818
N          -6.61682211793223    7.16261025617030   -9.64556823863903
C          -6.24922182988782    8.41706047774237   -9.95797477845758
C          -6.87499255794230    9.26391281656175  -10.83049643963026
C          -6.44106758515877   10.55204571346643  -11.19347977778334
C          -5.33480819214798   11.26883421956988  -10.79596654316258
C          -5.00389897787476   12.56905602588395  -11.25078367768005
C          -3.85479932401802   13.08557344086994  -10.72677831821894
C          -3.20787044051352   12.22266061362136   -9.82045572176088
S          -4.10815165878533   10.73095155684550   -9.65825239792920
C          -2.04497334290772   12.40208507142184   -9.09354249825311
C          -1.15411649366193   13.49775850000938   -9.07410933220870
C          -0.10798519355690   13.33888156153661   -8.21995748332549
C          -0.11218960031298   12.10705941662346   -7.50382655029522
S          -1.50210226878561   11.14183026335838   -8.00683743486045
C           0.80065442928951   11.76073154327868   -6.55387196552455
N           0.87843002985273   10.60532251154382   -5.84104582675783
C           1.62127315441145   10.53395486091833   -4.56602934873011
N           0.89678588881088    9.63622053481624   -3.69432480622120
C           0.31230027531870    8.70058033820566   -4.64043463323026
N          -0.81055981407493    7.92343342808493   -4.18124608954025
C          -1.64124375120494    7.57336593503020   -5.33337556824845
C          -0.83826176168233    7.52439020596825   -6.64801669710935
N          -0.38902083346089    8.84863139954198   -7.01761263746088
C          -0.16036274336265    9.60950749923931   -5.80400996282488
N          -1.82629568879038    6.91881086342162   -7.50549537442427
C          -2.29418766469637    5.79328973217294   -6.70985256732683
N          -2.23820431996481    6.26079512472142   -5.32397439793948
C          -3.30642806748361    5.99687680721923   -4.48335617332672
C          -3.63070530206960    6.69290284932688   -3.40168812727228
H         -10.63626690749248    2.28963065470243   -3.29009764004939
H          -6.31362930357180    3.28086804493904   -5.62602183559022
H          -9.72715977381549   -0.35635821208623   -3.26885790511879
H          -9.19304496795844    8.12480043724715   -5.23084007679800
H         -11.57766204193861    6.99818016895476   -3.90964140764754
H         -12.19257112254730   11.53879846497939   -6.75347164641923
H          -9.96524824308865   10.17348318690058   -7.46961846424813
H         -10.85953890441044    7.26917994016147   -7.15772821494450
H          -8.79094058772774    8.68622240490332   -8.94891065949451
H         -10.22734145895753    5.40804404373305   -7.75342393639278
H          -8.70291962878294    4.64269244572890   -8.20737413921623
H          -9.99160653678062    4.80192215468413   -9.39406772028380
H          -8.17092353091455    6.91157254137608  -10.99255883494461
H          -7.59451975771465    5.43771948638589  -10.20178578097893
H          -6.08162168282611    6.69471926858659   -8.92864186896714
H          -5.34125140046670    8.72948749341122   -9.46613422043287
H          -7.79196406273402    8.94210069922549  -11.30461252669901
H          -7.07519644266509   11.07052395837110  -11.90317457500194
H          -5.62958891114299   13.08699308754145  -11.95703923657271
H          -3.46270192350858   14.05833299376195  -10.96473220772861
H          -1.30864377183071   14.36753660041766   -9.68745345580540
H           0.66913861253223   14.06737375046171   -8.06695987533092
H           1.60008863633560   12.45898690850973   -6.34196053686648
H           1.74860309568680   11.52063356014171   -4.11769943729624
H           2.61222936727337   10.09980138263329   -4.76251795108089
H           0.15001685509655   10.11533222835794   -3.19835270087891
H           1.15957160715245    8.08612496453060   -5.00322282549743
H          -0.51910917778081    7.09325414823452   -3.67726694959528
H          -2.42597396352493    8.34331134176222   -5.43031446138358
H           0.02490502455855    6.82887506561371   -6.49413640085166
H           0.43430896223330    8.82381244911251   -7.60877818873495
H          -1.11881346310411   10.07609224462313   -5.52057566200064
H          -1.47148102452112    6.63579553875550   -8.41098546128691
H          -1.64005059508078    4.90398309859075   -6.80482509253988
H          -3.31056104896628    5.52048261842792   -7.01306847669769
H          -3.84371298958553    5.09882511864441   -4.75713700215181
H          -3.09128417936823    7.57477966998013   -3.10907728160610
H          -4.44207010776563    6.37824755155694   -2.77158929340744
