99
 SCF done       -203.203540163209          0.000941844836
C         -13.46414887155807    0.08858056306731    1.29536509094851
C         -13.51389842025411    0.21696571429767    2.65843836673244
C         -14.14412933661890   -0.70405367697413    3.52049468559319
N         -14.64390362336227   -1.41768333162185    4.26746510507413
C         -12.93193908561742    1.28704227020726    3.36883918242995
N         -12.46514074681827    2.13876884964842    3.98050638525763
C         -14.03892989645129   -1.00284415665132    0.51388719229741
C         -13.75339021250088   -0.78899128671358   -0.86068093087810
C         -14.17085260153151   -1.65052466710184   -1.84706515436272
C         -14.90652888794915   -2.77570942862413   -1.46160325725371
C         -15.18658928446795   -2.98137552963524   -0.08882786518036
C         -14.76284372646369   -2.11085812815806    0.90896006206701
S         -16.10982855704320   -4.42896364579321    0.16499617479332
C         -16.10949751611559   -4.73627858219273   -1.55149577195171
C         -15.45071014401699   -3.80262466931930   -2.27954569460893
Br        -16.97809341633555   -6.25740539287237   -2.21949698568720
C         -12.98844062023746    0.45348551966553   -0.99689705562311
O         -12.55921823291334    0.96239781775565   -2.02947407650924
C         -12.83263859040375    0.99142932871381    0.35878725927789
C         -12.19229051967743    2.18351003161647    0.58647759492928
N         -11.68060596790443    2.87238451673884   -0.44094983263879
C         -11.05459770472879    4.07429755795125   -0.39555432659264
S         -10.82544481863213    4.92599360699364    1.09957796258878
C         -10.05459121728307    6.20537140931434    0.22183629189296
N          -9.58752528456029    7.31729254933676    0.93918026925035
O          -9.06514118932544    8.21302027161458    0.30316674268030
O          -9.74193141265432    7.29735821476272    2.14548533053708
C          -9.97951273944026    5.98329353862203   -1.12621311917848
C         -10.54999593226701    4.75440591577320   -1.51114357075853
C         -10.60901174924635    4.24140555678154   -2.85787944641749
C         -10.21913922405501    4.92932500807181   -3.94249204536050
C         -10.20851343822108    4.37948126176687   -5.28345661352213
C          -9.83335570785952    3.09125905714704   -5.52259634359235
S          -9.74348192186375    2.64890410558670   -7.18432296778947
C         -10.25154160844711    4.24552380515622   -7.63377468888180
C         -10.49026854550059    5.08501092317378   -6.51089712221033
C         -11.01150031800920    6.36280066418777   -6.74795003203734
C         -11.37743024102918    7.29288380921526   -5.62873542708592
C         -10.22175395059053    8.24327799674887   -5.29834022026026
C         -11.18571594338960    6.74055647739649   -8.08751463631784
C         -10.84512331069732    5.80747835539048   -9.10214452844650
N         -10.40938627412981    4.58673985643670   -8.89210884368867
S         -11.12095810484567    6.41703720709825  -10.70444220615660
C         -11.68324791860841    7.90636664468782  -10.04262895475917
C         -11.69783935268262    7.94628325402691   -8.68355748829011
N         -12.16670813549991    9.04987974083639   -7.95487231279187
C         -13.17347674081294    9.86956900848802   -8.34986751615051
S         -13.13739209174224   11.53221970265916   -7.86004239704915
C         -14.63451392819212   11.80641857093357   -8.70348317078465
N         -15.16966987863129   13.09671867173175   -8.63362692726570
O         -16.19551229059931   13.32429803822792   -9.24296715666569
O         -14.54468040715154   13.90328480825310   -7.96329673472598
C         -15.11434137430204   10.68988779265982   -9.32693469570344
C         -14.29767691414191    9.55644768278564   -9.12766981027623
C         -14.61667100125787    8.23615852503469   -9.59298348986098
C         -15.42387839953997    7.97392782185171  -10.64489883086292
C         -15.71495726017882    6.64824012386945  -11.05399876433141
C         -16.57959809100304    6.24099791408477  -12.02090444207566
C         -17.58634254922985    6.94328755083578  -12.79147680015025
C         -18.32306437949154    8.02655444811048  -12.39039180608082
C         -19.35072536153170    8.60359083338092  -13.16687150443274
N         -20.19006531515926    9.11082933955411  -13.76259430130420
C         -18.22486848187869    8.63173661850271  -11.12010473640968
N         -18.20904298142850    9.14572647539146  -10.09375884568491
C         -17.84574845284085    6.14569556211984  -13.98638825369976
C         -17.20801396991791    4.88680989686529  -13.84341101392727
C         -16.46071954523054    4.86190127481091  -12.57148100188646
O         -15.84045519485037    3.94314815095979  -12.08853468667904
C         -17.29924478324346    3.90138078499483  -14.79651580587847
C         -18.04387909019049    4.17408577989615  -15.94868383509123
C         -18.66434164598965    5.43934595097084  -16.08842015350016
C         -18.57957405086535    6.43349410042559  -15.12148659239192
S         -19.52103421425094    5.56853817499998  -17.59368253218491
C         -19.04532593958317    3.94288907110074  -18.00861429580414
C         -18.28257776289148    3.33333820302358  -17.06995017998804
Br        -19.59756383059362    3.20606216403845  -19.64194163080969
H         -13.93980018365873   -1.46196765779999   -2.88372674987340
H         -15.00270895915590   -2.31021689443732    1.93994793793129
H         -15.35304955535529   -3.83569576190182   -3.34922893011185
H         -12.08278746454438    2.60840584512954    1.57585812522491
H         -11.82393048314328    2.41068646786062   -1.35836986490786
H          -9.51834556639182    6.69193175047534   -1.78863599773973
H         -11.00864239867944    3.24586090284603   -2.99037057251336
H          -9.84226594111661    5.93341170697696   -3.83188533298471
H          -9.54868323675788    2.36776589458990   -4.78337550566109
H         -11.63665725718400    6.70885912038768   -4.74515420269573
H         -12.26061156613981    7.86728749756887   -5.91081912605914
H          -9.34717410099524    7.68872755092954   -4.96522054720309
H         -10.51404149630177    8.93453633829074   -4.51153833215019
H          -9.91587290439967    8.81655724660843   -6.17199986876360
H         -12.00553188424841    8.68427145634048  -10.70655352847277
H         -11.51866059852066    9.45029313327072   -7.28900697936636
H         -16.05592876421187   10.67599836306607   -9.84631668029585
H         -14.19689484273052    7.40835547945005   -9.03783866091698
H         -15.82445936785277    8.79125883734161  -11.22447266196206
H         -15.12575715972477    5.85596485160459  -10.60278899194676
H         -16.80969698651338    2.95009205694581  -14.65889984764684
H         -19.06244735895379    7.38429822223648  -15.27521479299932
H         -17.90228168900860    2.33253565213262  -17.16328914786102
