90
 SCF done       -188.999745738048          0.000605224362
C          -4.26272080745616    1.50636723952203   -0.84571375440786
C          -4.99500715381082    0.38179768134366   -0.56010855816804
C          -4.85309868820681   -0.84824265801525   -1.23889628413327
N          -4.81289813041725   -1.86771120836739   -1.76426436770786
C          -5.98036009078644    0.25093438726290    0.43664028129677
N          -6.77067975018299    0.03617207054387    1.24468760606872
C          -3.18356954582891    1.56664182618960   -1.82328568343837
C          -2.66901054159599    2.88604462019345   -1.84801388342502
C          -1.62548798106349    3.26364056083325   -2.65827908562065
C          -1.05541343741874    2.28783323030677   -3.48174504878954
C          -1.57028148343208    0.96957476673522   -3.44570590731962
C          -2.62810620044179    0.59018115399152   -2.62842182457576
S          -0.71584137696394   -0.07930650404149   -4.53423427409028
C           0.30637990208069    1.24777187539875   -5.01737488512911
C           0.02477856464725    2.41811520193012   -4.39622217144083
Br          1.64787897408693    0.96563459088942   -6.29590438149533
C          -3.41068318790563    3.71635491763693   -0.88968526596973
O          -3.25252173800367    4.91899674565770   -0.72882632651934
C          -4.37775461958817    2.82067250891742   -0.23341923316054
C          -5.21929378254243    3.10643757769982    0.81202839361326
C          -5.33693143199168    4.26758607363937    1.59267072240915
N          -4.85850182520729    5.51474146743942    1.28886311020990
C          -5.27351913786710    6.34620078481519    2.25729368734771
N          -5.97719715179629    5.73970917426077    3.18058322905219
C          -6.03171067562212    4.43725827080571    2.81890278932356
C          -6.62341149211864    3.44096340173926    3.66625402201726
C          -6.08821189148588    2.14348572257660    3.79815764677126
C          -6.68085644941977    1.14853004554977    4.66353739123693
N          -6.17720980445596   -0.08027941116152    4.68420362012348
C          -5.13135974634293   -0.39540938439643    3.94715023901861
C          -4.48326421183845    0.61850673238237    3.18221011541914
N          -4.96153878094249    1.83638940988564    3.13348381044489
C          -3.33703038111043    0.33377276178792    2.39766664787065
N          -2.45047245085496    0.10877067293861    1.70785735105510
C          -4.65956852763002   -1.72656377922499    3.93726211738222
N          -4.24829626110297   -2.79642101021450    3.90781697249295
C          -7.79667095414036    1.43961099219925    5.49665606407251
C          -8.28989116202250    2.77199892833294    5.39503875378438
C          -7.72535228680976    3.74507887326360    4.49225431841792
N          -8.38642302278371    4.90045326485537    4.53594922285160
S          -9.56726586713750    4.78968605355337    5.61142635521104
N          -9.32331389742762    3.26389727326856    6.07142854948175
C          -8.44693102912351    0.55578121069336    6.36769581817746
C          -8.26653671434629   -0.78644561968485    6.64337828591499
C          -9.08420761883271   -1.47780740676752    7.57479547418412
C          -8.80439590589773   -2.80641003119790    7.70357155537734
C          -7.74812699514106   -3.22124769051562    6.87015984150355
S          -7.10820728404746   -1.88351860521898    5.94142895576256
C          -7.21604742615294   -4.49442579864325    6.71118083137493
C          -7.57786777710491   -5.68900878151117    7.37085291213598
C          -6.86601058883412   -6.77595604429587    6.95603094007364
C          -5.91385151600342   -6.48491897810777    5.95033971065528
S          -5.94707306137818   -4.78498244556786    5.55329236737987
C          -5.09719996278297   -7.39125018709131    5.30446849620721
C          -4.17887543315904   -7.03725493248860    4.31602637604252
C          -3.45341544756761   -7.88895910645815    3.51582335403613
C          -3.59833219187099   -9.29331423527812    3.23893751267549
C          -4.75399635933731  -10.03634272090778    3.31558721045153
C          -4.83039772097681  -11.40448186770286    2.98851247560320
N          -4.94746390481588  -12.52427804673363    2.76165536007087
C          -6.02568509527723   -9.51188336582366    3.62177503426057
N          -7.09569281223126   -9.14377074514060    3.81873496884119
C          -2.34905755826289   -9.75179902384487    2.63232898910322
C          -1.53762276412478   -8.62248001259752    2.35851140501418
C          -2.21928702266063   -7.40397163157700    2.84590300045786
O          -1.83450518801940   -6.26095848690122    2.76499985352953
C          -0.31412695104236   -8.72357292383828    1.74402939693842
C           0.13584869640557  -10.00100141403580    1.39180639751954
C          -0.67415912857808  -11.12333238540146    1.68423692487028
C          -1.91656085051639  -11.02046900863687    2.29962420280423
S           0.07773396538393  -12.60448678510745    1.17478433607375
C           1.44899227621985  -11.70738386431300    0.57829442066109
C           1.35214367032835  -10.36835973008016    0.75318224974033
Br          2.87958253613683  -12.62470251410133   -0.21513416592562
H          -1.25616159284272    4.27721976550547   -2.65203031750570
H          -2.97751840337528   -0.42818285004005   -2.63430126723836
H           0.55647973152748    3.33501046752544   -4.57392078946678
H          -5.88513972242904    2.31504923329338    1.11994118293327
H          -4.24905321854500    5.67658431771452    0.48059087990692
H          -5.04730829579025    7.39431596846504    2.27125819115441
H          -9.25915728005862    1.02417431385227    6.91330269546545
H          -9.86078223929719   -0.96791268182130    8.11778495567980
H          -9.33136804569044   -3.47630224157072    8.35943107943129
H          -8.34396157712090   -5.71598552975734    8.12468827588649
H          -7.00295848524034   -7.77546153970257    7.32820425484811
H          -5.18085775271075   -8.42494888660863    5.61020018624966
H          -3.94900110989889   -5.98212640584210    4.19555114851879
H           0.27698353201530   -7.84501424788054    1.53869269221780
H          -2.49562652933820  -11.90543593450219    2.50503143067109
H           2.10547263787471   -9.66642747139505    0.44538882593741
