106
 SCF done       -192.795518411582          0.000907129459
C         -12.40593289851707    4.14434710875148    4.86469767749854
C         -12.18805301766103    3.38697676174851    5.98931767874733
C         -12.64366480932574    3.73823606976165    7.27687838414926
N         -12.99085037004443    3.96050398810521    8.34886796305887
C         -11.48944044388506    2.16390403231611    6.05245815576872
N         -10.93598891417958    1.16867818386397    6.21021707996480
C         -13.12431751850448    5.41640439531575    4.84045869121467
C         -13.14849382950393    5.89854588681397    3.50925051636304
C         -13.75021714044606    7.08110324825015    3.15590644917110
C         -14.35927766462976    7.82998854425332    4.16866429097057
C         -14.33117328600334    7.34224080076432    5.49612845982891
C         -13.72295006671973    6.14398878168270    5.85190246566195
S         -15.14126548042964    8.42265660518849    6.59059263750444
C         -15.50044654712631    9.49926205248388    5.26703213205048
C         -15.03921964807496    9.07465021399831    4.06704782385939
Br        -16.44990341597084   11.08337057501297    5.59419387787014
C         -12.44820537971269    4.93755746328729    2.63493605730560
O         -12.30611049678578    5.03917689668927    1.42976354990752
C         -11.98339670643997    3.85649372244962    3.50935676257586
C         -11.24236875631524    2.76473895498654    3.12500655276770
C         -10.79753436560128    2.36217185381882    1.86061092440614
S         -11.32504864722749    3.02601334677161    0.33244202784264
C         -10.54229007277316    1.75972534515642   -0.50937771870825
C          -9.87545668499806    0.87554802751306    0.29006933409941
C          -9.08548061284437   -0.28758093917712   -0.21077084240511
C          -9.98768345677877    1.22331720748368    1.65865037277749
C          -9.32122619223353    0.49551120425913    2.69767971146872
C          -8.77580459973970    1.04324815229212    3.80787792077338
C          -8.13353704536133    0.31528722508113    4.85282415073105
C          -8.28226691905335   -1.00827613782801    5.08318024187641
C          -7.59154890402296   -1.72754503558460    6.08933899255500
N          -7.72295427199527   -3.01005748069648    6.28401318104363
C          -6.88912835973975   -3.44305162896523    7.23204162995421
C          -6.07409789970316   -2.49337541142204    7.80108139577810
S          -6.38581460305598   -0.95026139337066    7.14503093136749
C          -5.16396952959923   -3.07557703871835    8.80977124478510
C          -5.30720836682015   -4.61166393818510    8.52451884065454
C          -6.71471369103955   -4.78621924049285    7.88958954115803
C          -6.89942974479853   -5.92223236513642    6.87417611001967
C          -6.46940311028303   -7.30912094611474    7.33703581485156
C          -7.79541767798672   -4.84263507781498    9.00693473611639
C          -7.53768801964355   -5.75661792585047   10.20239806800738
N          -4.14801122119647   -5.04668522390135    7.75296705766618
C          -3.00247858370087   -4.44814801228967    8.35463174307804
S          -3.39304971566617   -2.65535215132993    8.62586780021902
C          -4.12371165305884   -5.03058860911580    6.34537473945870
O          -4.48577547555117   -3.84433700803326    5.75797278289203
C          -4.52808446564413   -3.76561803766415    4.39652707855746
C          -4.93648820548685   -2.62721975464235    3.76851227913212
F          -5.27293493597359   -1.47282569580390    4.34315067651523
S          -4.96432500065846   -2.76132298557862    2.04770536056832
C          -3.68958364233080   -6.12015309833040    5.71468106192351
S          -3.56261300374098   -6.33976323395607    3.97715247742431
C          -4.19016634075904   -4.78268842677673    3.45814456032782
C          -4.36879455832409   -4.40783880107209    2.14607714382904
C          -4.15456811265690   -5.09026130874001    0.91024439222990
C          -3.61405712014305   -6.31628782051282    0.77049226348396
C          -3.36964087507045   -7.03029215425919   -0.45684144661539
C          -3.90022447497844   -6.73006915510355   -1.71119033484347
O          -4.72942861630385   -5.65561001377122   -1.78337454814667
C          -5.82061207473032   -5.63438580590337   -2.68360199841478
C          -3.54314876563744   -7.50449248240610   -2.86996694117671
O          -4.04667247736965   -7.05229550097052   -4.05352943915971
C          -3.70663012429896   -7.73312845161790   -5.23733415181843
C          -2.72619128381829   -8.60362766947402   -2.77859470972735
C          -2.21368380688314   -8.95865264561289   -1.52341508497021
C          -2.52276578499732   -8.16789658470269   -0.36774511268594
N          -1.94177755018918   -8.64235246636349    0.73077942629386
S          -1.09466011502143   -9.95615713102175    0.34133380250703
N          -1.41758601985394   -9.98706506585265   -1.23791712004974
H         -13.75011248205956    7.41866925677878    2.13136272005129
H         -13.73065275546794    5.81859013628501    6.87848300498299
H         -15.17207531976659    9.61454166776440    3.14733916781543
H         -10.95711723119331    2.08053851392978    3.91445508915197
H         -10.59410481456676    1.73272350381962   -1.58143119113924
H          -9.10137464717221   -0.31567024700495   -1.29691404771823
H          -9.50074139393536   -1.22105386352035    0.16797326902104
H          -8.05204689804299   -0.21842200512624    0.12564223550803
H          -9.19536821151033   -0.56342748323687    2.51958930776853
H          -8.75235105746914    2.12157724046150    3.90120135399590
H          -7.49440875793562    0.88464682991188    5.51471228251799
H          -8.95318776338169   -1.60886404457698    4.48600135527724
H          -5.45511515418623   -2.81091693262254    9.83022371099564
H          -5.22891504179617   -5.16623412480582    9.46307245760585
H          -7.95669172835772   -5.93830506457965    6.60158880532896
H          -6.35894639255182   -5.66778264566314    5.96323937493007
H          -7.18275176650462   -7.72740655437753    8.04108100258872
H          -5.48808931166811   -7.27562544741335    7.80238715268640
H          -6.41897776425581   -7.97759328561144    6.48029116802917
H          -7.94679305231214   -3.83001584788944    9.39051085268025
H          -8.72901739993790   -5.13934338285816    8.52645825002553
H          -6.79930691995320   -5.33205822983274   10.87887200968029
H          -7.20303720936829   -6.74263424133136    9.89937369608268
H          -8.46362507516847   -5.86875001301198   10.76259033606310
H          -2.11867993650715   -4.52692363590555    7.72693289530022
H          -2.81431312146000   -4.88936072750732    9.33588776616501
H          -3.41028257886392   -6.99468497448497    6.27153071743611
H          -4.44518567368657   -4.52840446542015    0.03672186338016
H          -3.26524488148205   -6.85516313358622    1.63944212524723
H          -6.54069322348255   -4.94364476139825   -2.24272570119426
H          -6.28026989691305   -6.61916446330970   -2.78436980497948
H          -5.52331848250051   -5.26971253743822   -3.66854229546153
H          -2.62596979234911   -7.72529917187048   -5.40718600492229
H          -4.20287844376651   -7.18738580680402   -6.03845979716890
H          -4.06726464077846   -8.76611655380969   -5.22433607131937
H          -2.45014801038489   -9.19445029842463   -3.63426663093138
