119
 SCF done       -223.529969358872          0.000530325522
C          -3.17482623131306    6.73920129782429    5.96706793879954
C          -3.36448675811060    5.43904493451382    6.36234747730259
C          -2.71497528925278    4.84947155385840    7.46535542459984
N          -2.21632255293952    4.32220864102441    8.35520893378922
C          -4.17492192521373    4.50357559265795    5.68536108187741
N          -4.78433208661931    3.68308417411520    5.16188692458391
C          -2.22530407554006    7.67598567737297    6.56203075219590
C          -2.18441069894861    8.84331056196877    5.76035530405023
C          -1.37522371199990    9.91407844170940    6.04943223184621
C          -0.57100505152062    9.83237680676932    7.19166133072688
C          -0.62225290879162    8.66562611655020    7.98945341892979
C          -1.43747345900333    7.57915146723395    7.69220666364779
S           0.44471243295551    8.77870204244438    9.35628450800713
C           0.93902371627510   10.36999544666481    8.84318687965374
C           0.33780449322069   10.79671663174652    7.70758732914668
Br          2.20041923090869   11.31950346543870    9.85621132953280
C          -3.12779307726888    8.68806716107066    4.63765821137002
O          -3.31564330818760    9.49319001282471    3.73877268433399
C          -3.79383038028210    7.40364390867193    4.84094170072079
C          -4.91936620860853    6.96757221210407    4.17418874019461
C          -5.57480485950119    7.51574420149858    3.07516822893564
S          -5.01652849919179    8.85286151206135    2.10893558677277
C          -6.36101517292129    8.75880235992724    1.04355099002675
C          -7.23469895714210    7.71047870580325    1.39251971672816
C          -6.79810996301416    7.01194609831995    2.55129687660101
C          -7.58228648369687    5.96542271727771    3.04352298273337
C          -8.74195554477119    5.57711806567317    2.40210560515323
C          -9.52610764022771    4.48170696393717    3.06460054752988
O          -9.23487464169215    4.08007083602797    4.15962730717904
O         -10.56306915371040    3.97462648929260    2.39834261542974
C          -9.11743484167153    6.22147452283571    1.19186026971535
O         -10.22388845265094    5.79505133778863    0.51181208498462
C          -8.37431961256019    7.26864161080131    0.70355451221433
C          -6.51864748072086    9.71542217176333   -0.00411732532734
C          -7.71771686088832   10.16010326997527   -0.42736810632390
C          -7.91949129956529   11.02859367648568   -1.56426847395762
C          -7.21570166692247   10.82442635163017   -2.71596882296776
S          -7.72594157032921   11.78268536356838   -4.04567541467123
C          -8.91493125457555   12.54695017594765   -3.03544942852013
C          -8.91129049006711   12.06785584617831   -1.71616521208996
C          -9.77080170403946   12.66551584758873   -0.76391411762221
C          -9.72249987597054   12.19340034564115    0.66556507698933
C         -10.76302764132656   11.10200806144988    0.93492282524684
C         -10.64278784459241   13.67442355429562   -1.14931172854364
C         -11.54093469034363   14.35941938050959   -0.15569200361960
C         -10.87654210010318   15.62778085012265    0.38611720911985
C         -10.68552868236330   14.10618629971573   -2.49515752165143
C         -11.58224994763942   15.02629636594168   -3.15301422203772
C         -11.37152395215861   15.05994193889682   -4.50470112856166
S         -10.07490898092568   14.08503895323823   -5.05241908008181
C          -9.81665599159236   13.52073269439235   -3.42931666569773
C         -12.63955147002387   15.84631559921882   -2.59540565461844
C         -13.85311185271811   15.86443841943410   -3.19594603897375
C         -14.96095399188961   16.68777990225746   -2.89871122700503
C         -16.15358938788102   16.49405313772603   -3.54823915397652
C         -17.32212088598104   17.29445554168891   -3.60408037314363
C         -18.26756562190475   16.84987456490049   -4.48328228440888
C         -17.91545195574416   15.64850270810361   -5.13726651192139
S         -16.36000754210516   15.09215529615644   -4.58834773240644
C         -18.52080062347681   14.91708303688911   -6.14638316100618
C         -19.58480174112297   15.18368139329867   -7.02789903670432
C         -19.66589428915249   14.29319726790103   -8.06306272402266
C         -18.67481525196430   13.28096805997382   -8.05120404282851
S         -17.70463210400733   13.44489217860336   -6.62347731087988
C         -18.50665148522687   12.25813016107615   -8.97339714970495
C         -17.53721192414841   11.26060948763142   -8.99359487991230
C         -16.33018737637278   11.10583299339903   -8.32129060250745
C         -15.39723024306369   12.00834505560244   -7.72741809963253
C         -15.23273249323794   13.34880770178513   -8.02058008090194
C         -14.28911207762630   14.17981115527830   -7.39633606587844
N         -13.55395773460009   14.90701902471142   -6.89294022345014
C         -15.96495959755194   14.00406385362317   -9.02689486009448
N         -16.54645339294355   14.56453420033467   -9.84346962812779
C         -14.52261149102802   11.23660623154918   -6.84515832132265
C         -14.76583999420453    9.86041974981545   -7.06678414892236
C         -15.84527550000287    9.72612314741274   -8.07648605807052
O         -16.27123400885959    8.70005232305458   -8.55950611059236
C         -14.10694847899717    8.87579244068133   -6.37554982607739
C         -13.18722120277119    9.27209479461992   -5.39516356775952
C         -12.96916707517317   10.64873139715790   -5.16886505124531
C         -13.61498044461517   11.64685947804267   -5.89088744954551
S         -11.83375879718149   10.91822608908757   -3.87933373648222
C         -11.67323422367421    9.19721632417817   -3.67280951737205
C         -12.41957770780248    8.45343611572982   -4.51834707044478
Br        -10.54910095889491    8.54485275378198   -2.33513849941629
H          -1.36312570028046   10.78820019558460    5.41744177140709
H          -1.44364739036923    6.71372328396451    8.33346531083115
H           0.52508464426120   11.75170602631477    7.25156180713541
H          -5.39557184346780    6.07890566857810    4.56865380405477
H          -7.31434591737761    5.42450507854121    3.93842990859508
H         -10.70006721130987    4.41925546610916    1.54414518844411
H         -10.34962782481450    6.33532237123577   -0.27982228067347
H          -8.65870160405926    7.72515971421341   -0.23332257968200
H          -5.60983162593205   10.14486733521983   -0.40395310378133
H          -8.60696339082737    9.81949974992908    0.07716056901196
H          -6.44633233076115   10.09276806730699   -2.86821975466379
H          -9.89390097054287   13.02753903441439    1.34502238593834
H          -8.72422588282110   11.81036840137091    0.87937755834562
H         -11.77204685984318   11.49840752686089    0.84910790524728
H         -10.63570399614961   10.69879390445622    1.93695320246136
H         -10.67052751526630   10.28931132988784    0.21846381517961
H         -11.78371157625008   13.70087465240514    0.67531680431709
H         -12.48102273338894   14.61446710673926   -0.64908799820540
H          -9.98139248511554   15.37653443399326    0.95069088308613
H         -11.55817908432907   16.16373463032589    1.04311076325167
H         -10.57878397583064   16.28698650679466   -0.42617577317376
H         -11.90522533988161   15.65301342986884   -5.22201922712578
H         -12.43205927411310   16.47937648642896   -1.74545450557513
H         -14.00387383322951   15.16831092412039   -4.01266941841614
H         -14.86084332926822   17.50217164625708   -2.19498234802761
H         -17.41129291583770   18.19749881221820   -3.02567516208440
H         -19.19847064405372   17.35109674462182   -4.68095699484730
H         -20.22701727711280   16.03802187086376   -6.90895342307892
H         -20.38493873222582   14.35806830256263   -8.86006481812378
H         -19.28482266091391   12.18427974286932   -9.72252759469312
H         -17.80005563927016   10.38067500827208   -9.57546924876564
H         -14.30253884880475    7.83240599335514   -6.56730121637461
H         -13.41907028611855   12.68531062232513   -5.68165973410138
H         -12.43979931167016    7.37841563245481   -4.52584234605419
