103
 SCF done       -190.143423202422          0.000459803891
C          -6.16871117703658   -2.99454875907662   -7.25907996791268
C          -7.50940702993149   -3.25293519776070   -7.24045916701202
C          -8.14331433658920   -4.22352936125861   -8.04746289706475
N          -8.71081299018107   -4.99641700707503   -8.67750666934583
C          -8.44799587696661   -2.56709611387897   -6.43789239752059
N          -9.26981915680282   -2.04322145937824   -5.83243428075671
C          -5.17824166993455   -3.63472810737298   -8.11128585064768
C          -3.91770576101081   -3.01487371690833   -7.91311478397525
C          -2.78792952851013   -3.40102263306424   -8.59397454661039
C          -2.90260554913520   -4.45150377851857   -9.50934427102714
C          -4.16409391128838   -5.06918421737431   -9.69732928521005
C          -5.30663472566418   -4.67768220952014   -9.01343417407062
S          -4.08032401235916   -6.34678780641109  -10.87172696938867
C          -2.37854607730569   -6.03758928155684  -11.09326991456738
C          -1.89479061673150   -5.03041771250804  -10.32706582077889
Br         -1.40202049325903   -7.07316514544084  -12.31254149019448
C          -4.04532436438781   -1.94537290761433   -6.90672720001249
O          -3.19230410828966   -1.17293672562523   -6.54163058554581
C          -5.46790009852947   -1.99873364708236   -6.44927224848784
C          -5.92240236767287   -1.25402586887748   -5.43186725275732
C          -5.01811543504226   -0.35135628676106   -4.69223070454033
N          -4.25449954952124   -0.91735090291582   -3.76296392840978
C          -3.40642108620576   -0.11388596047949   -3.13651041139563
C          -3.30891952259223    1.23211965710408   -3.42426963835857
C          -4.19408588201515    1.74272784116501   -4.38567346848714
N          -5.05950917211132    0.92777392395867   -5.00572835928528
C          -4.20150171225168    3.13514724800105   -4.73986031700631
C          -5.11931851817850    3.66818354505207   -5.57885890033655
C          -5.16439547219052    5.01973789786206   -5.98350089717664
S          -3.91908028249963    6.14692770221195   -5.56345922869881
C          -4.69035348997592    7.47063858649633   -6.37795168601617
C          -5.88070308370515    7.04438810350788   -6.98820502814899
C          -6.14749627508121    5.65844425012352   -6.75591882700119
C          -7.31080492420750    5.07164490765928   -7.28393610837510
C          -8.17034586610683    5.82448694296629   -8.03589562393915
S          -9.65746183042157    5.13800999737721   -8.72243240039699
C          -7.89290317153729    7.19297008484521   -8.31100997012824
O          -8.71487234880710    7.94369146632597   -9.08060155330464
C          -6.76678146732758    7.78140572388501   -7.79431670609089
C          -4.02488734717778    8.72120145611362   -6.30704237120112
C          -4.49570161273529    9.95453213513833   -6.60352763145256
C          -3.69594102518190   11.14079959388737   -6.50520528122880
C          -2.37061012795074   11.21533061945980   -6.31141805356865
C          -1.91216823245102   12.63347530053769   -6.21444771448545
C          -3.07294762255141   13.43285344522847   -6.84471426119195
C          -4.29337360501254   12.52260283866713   -6.61078577412708
C          -3.06267831269034   14.79643386543834   -6.14198389070680
C          -2.48547535119963   14.50603833634911   -4.74019966025232
C          -3.69821906598987   14.56287645868567   -3.84713419119499
C          -4.75313703688219   15.04658323364002   -4.47983118341212
C          -4.44881222973413   15.41419106451049   -5.90104699806714
C          -1.81104628617642   13.16558514621957   -4.80948687449320
C          -1.32375383861366   12.56923928963464   -3.70596842229261
C          -0.75883258894094   11.27155093723742   -3.54061835406030
C           0.00255240805738   10.49277809199366   -4.35360170933795
C           0.71896681275860   10.74765067703431   -5.58213211568358
C           1.22490830372180   11.95336337615880   -5.99432880643512
C           1.95530862342764   12.13695982345590   -7.18616987296156
N           2.52953020589608   12.34598195128096   -8.15789185716601
C           1.14482298194126   13.13422268188267   -5.22858706047269
N           1.12280430144115   14.11713230019967   -4.63688438837765
C           0.95177578918408    9.45868054731496   -6.22736173641389
C           0.56452709522512    8.42562925250765   -5.33686040549350
C           0.05228114627716    9.02766400570196   -4.08887138641159
O          -0.30762303082741    8.45660962543243   -3.08547168773084
C           0.65397114010088    7.09507566734848   -5.66521383239809
C           1.14985768389510    6.76799767936618   -6.93182471254076
C           1.53666772573058    7.80630558311795   -7.81253060092382
C           1.44552094162703    9.15288020202334   -7.48109649935647
S           2.12009435677386    7.17796298932359   -9.32361101354509
C           1.84147508036057    5.55168346523208   -8.75924882911668
C           1.33602888309571    5.48021527500693   -7.50515686913039
Br          2.24395693416310    4.10293775754743   -9.88001864926759
H          -1.84445515462160   -2.90663142882096   -8.42352207930601
H          -6.24326973272093   -5.17989267088340   -9.18977968318071
H          -0.86970534396288   -4.70786694730097  -10.33721121483342
H          -6.94885902646551   -1.29174906142676   -5.09544070689797
H          -2.78856181774380   -0.58632733398059   -2.38344797253912
H          -2.59787431741963    1.87103972163465   -2.92646417368375
H          -3.43514130058758    3.75723346553445   -4.29781793567737
H          -5.88016254895460    3.00630742555752   -5.96819856693417
H          -7.51603101561347    4.02928826659164   -7.09333799262887
H          -9.49784180826100    3.92421273919397   -8.20889015429381
H          -9.46890269925308    7.42184248204535   -9.38425357492004
H          -6.57787233759619    8.80982884939042   -8.04452934650088
H          -3.01548123341185    8.64991848043301   -5.91953167826320
H          -5.52360425107592   10.09603662334661   -6.89858177396138
H          -1.70359206632126   10.37856731960837   -6.23714994050605
H          -0.96035870961168   12.80899732702922   -6.73283181016558
H          -2.92332023549027   13.54803242735511   -7.92087902894312
H          -5.02306040060265   12.58819886162430   -7.41807933459481
H          -4.79619537974498   12.76762625221142   -5.67232510350877
H          -2.41698188711945   15.47430208891274   -6.70261190442711
H          -1.75781693162297   15.25641166555756   -4.41043305182581
H          -3.65569714597459   14.24817856856118   -2.81963211893310
H          -5.73039010611646   15.20110626484622   -4.05527511649629
H          -4.41439769660881   16.50205278541596   -6.00183451586687
H          -5.19919185647435   15.04454494613479   -6.59982726397715
H          -1.47621875506400   13.09590798456227   -2.77036706768207
H          -1.02812793843926   10.78382440892668   -2.60605047880158
H           0.34918157442668    6.33001387528595   -4.96867045174233
H           1.74091040022975    9.90962087582458   -8.18891873132023
H           1.10322956101175    4.55884599248949   -7.00336100587228
