101
 SCF done       -186.472450350726          0.000797145347
C          -0.30098578487165   -6.02209266824210   -3.29330750001403
C           0.85915209055846   -6.43586536563016   -3.89538336664996
C           2.06782685834884   -6.66176818319924   -3.21228975355634
N           3.07629197974327   -6.86465225250313   -2.70108889416428
C           0.98505684820591   -6.58918324602888   -5.28810847979005
N           1.16911945275680   -6.67147173184085   -6.41945978294496
C          -0.46715660103800   -5.62916987753661   -1.90548326999883
C          -1.71794416273399   -4.97542788712683   -1.76981518220331
C          -2.17280600193915   -4.50247886550400   -0.56314384213791
C          -1.36793735487103   -4.70743587376367    0.56276159788275
C          -0.12398848886768   -5.36833061094358    0.41598408950141
C           0.34982887757465   -5.82355697987363   -0.80705926463422
S           0.68587148656720   -5.54294154622773    1.94207119189137
C          -0.63724483725877   -4.72388526073746    2.73893997230417
C          -1.63609576794040   -4.34409122791162    1.91082171753832
Br         -0.54557308600914   -4.42958753397403    4.58500355328117
C          -2.42033887561425   -4.97223992063265   -3.07083381140836
O          -3.50748895970332   -4.49895536912162   -3.30473372006472
C          -1.55689151419309   -5.78349713340004   -3.97362348956530
C          -2.01324852946850   -6.43140958124886   -5.07733268739596
C          -3.25971160667248   -6.12224119913837   -5.71969471877251
C          -4.19930854801471   -7.07839821610587   -6.03043416207457
O          -4.05132023244393   -8.39226609621785   -5.81853062523365
C          -5.15735852263701   -9.21986112691357   -6.09999836856471
S          -5.68182758454932   -6.36992064715299   -6.59469681729590
C          -4.99073621363763   -4.76114690516572   -6.48215742346705
O          -5.65384115045545   -3.66771469273024   -6.88632118805995
C          -6.99377318445733   -3.83739160881181   -7.28221581873979
C          -3.70839649627734   -4.78764830702421   -6.02213444293132
C          -2.81347058953213   -3.64608562567261   -5.97994546671394
C          -1.54771801586210   -3.76519701771624   -6.40270639793692
C          -0.52922761062569   -2.75229975207030   -6.32345802316885
C           0.60650856232091   -2.79109864462407   -7.03275808521800
C           0.89341452342406   -3.82713762845435   -8.07906611862715
C           1.72809843590223   -1.81823568969975   -6.76459425745357
N           2.88115486247781   -2.53632956312802   -6.25953825803978
C           3.00790717334245   -2.90625342723063   -4.98188047119539
C           3.97174336862369   -3.77037394034341   -4.53599276183810
C           4.22273716536057   -4.13156382820597   -3.20661183233478
C           3.55497355138147   -3.79957022629856   -2.04802269413840
C           3.97948800925056   -4.15736973682661   -0.75048598942894
C           3.19801823074906   -3.67555462131519    0.26001164911486
C           2.09398323041036   -2.92484240369242   -0.18642772585944
S           2.06685145975907   -2.86490062994019   -1.92784894226478
C           1.12701717051225   -2.29296346583950    0.58361259236360
C           1.08630818575569   -2.17220123464167    1.98134241354587
C          -0.01656365663432   -1.50536938531459    2.44428196791743
C          -0.88873368126148   -1.06708353017541    1.43222228473091
S          -0.27014594127399   -1.51591958871477   -0.13668089463646
C          -2.08956492657546   -0.39475391185267    1.61257312297214
C          -2.84940429238086    0.13039433114364    0.58472510054672
C          -4.06273439424195    0.79272422908422    0.70796784091259
C          -5.01259010939284    0.79516564684652    1.77469612796242
C          -5.21511104849278   -0.21036539070756    2.70122219792241
C          -6.18643129667463   -0.16320456547450    3.71549579444125
N          -6.95385185849485   -0.16871996263303    4.57133991419755
C          -4.55244917316248   -1.44528484638069    2.64841609689571
N          -4.07523148657210   -2.49156521016825    2.61077836843533
C          -5.89382093802810    1.94696513327294    1.58023134455317
C          -5.60275410162256    2.52254065492841    0.31885962752365
C          -4.48142432257986    1.77627695063496   -0.30313181019748
O          -3.99043277488211    1.96949468521195   -1.39738864186175
C          -6.27773610125720    3.61403588325200   -0.16462492456588
C          -7.27944344967147    4.17229834456590    0.64018867317892
C          -7.55483768566675    3.59470960419126    1.89933243346163
C          -6.87833629295695    2.48051177697322    2.38571400511945
S          -8.81882566768092    4.44960460752065    2.73296097283168
C          -8.95824444310198    5.55530765574746    1.39229264855966
C          -8.10453060487176    5.30020263581444    0.37378262959197
Br        -10.21791732959295    6.94518855229612    1.46515679357027
H          -3.12314284159162   -3.99969379095620   -0.47792453600863
H           1.30107652632682   -6.32645079601355   -0.87453384861709
H          -2.52282177743392   -3.81888838579157    2.22628765565942
H          -1.46844530259774   -7.28888400795450   -5.45668126278629
H          -4.83877852547326  -10.23595980924566   -5.87786951627534
H          -5.44716164127936   -9.14227933604332   -7.15264967589199
H          -6.01489342946421   -8.95330702014014   -5.47438215035710
H          -7.36120611825371   -2.84613926445283   -7.53871871682508
H          -7.59626600457322   -4.25582869257801   -6.46927533658445
H          -7.06657036833216   -4.49591473920846   -8.15479766023020
H          -3.21723189063673   -2.70896826862650   -5.62779286403496
H          -1.23148655858085   -4.71248245220992   -6.82034019187478
H          -0.70510048221582   -1.94059058829104   -5.62965112763366
H           0.02457023559000   -3.97844259391499   -8.71463377232614
H           1.14017933836151   -4.78815881727003   -7.62406735582695
H           1.72537437207931   -3.52053389740917   -8.70937030015908
H           1.42569531844788   -1.07792101991707   -6.02116862297764
H           2.02653518237252   -1.29977243811024   -7.68074365985223
H           3.42831834215979   -3.04357111176155   -6.94200257277242
H           2.32468706298026   -2.42604233832826   -4.29731510546833
H           4.63211137345139   -4.20259125256577   -5.27674812143162
H           5.08223905382682   -4.77106101507955   -3.05113577721347
H           4.86032525781479   -4.75547090113737   -0.59995915612080
H           3.38498863793419   -3.84751208079105    1.30418904953963
H           1.86315637140756   -2.56345889535787    2.61395384130107
H          -0.22122705839672   -1.31950984335141    3.48358735818304
H          -2.39881728454718   -0.24564907899491    2.63801491838576
H          -2.41694336919510    0.13524239043610   -0.41107329982621
H          -6.04236023521717    4.03038668346424   -1.13160893194118
H          -7.11979376059668    2.07594096847538    3.35482570577132
H          -8.05486664986125    5.88243544409227   -0.52830178364956
