124
 SCF done       -202.956462593269          0.000894335742
C          -2.01441748570873   -0.51776884812170    2.86192881403919
C          -2.72336256940886   -1.49683066494108    2.21328952130782
C          -2.35214358279059   -2.85709217951359    2.19060087474469
N          -2.10486859528234   -3.97732797731258    2.14071901340763
C          -3.89710936668807   -1.29741739094883    1.45653574904818
N          -4.84177929433432   -1.22859797231663    0.80619223144962
C          -0.75337337084159   -0.71767331332745    3.56400252561534
C          -0.26845655045720    0.54248739668557    3.98661642465100
C           0.91161438247378    0.69215284345003    4.67310664359932
C           1.65220102766981   -0.46007137013370    4.95539136150539
C           1.15758302137269   -1.71718202173241    4.53436474036946
C          -0.03683292007446   -1.86777373044097    3.84135858256030
S           2.22753665876483   -3.00951670065517    4.98981204950767
C           3.30776071766586   -1.85807401534641    5.73058043979304
C           2.89321835722691   -0.57248765206371    5.64023587199806
Br          4.88606011107132   -2.46195478446386    6.54510864197255
C          -1.21385156004598    1.60323745205808    3.58014415027883
O          -1.09678873779588    2.78276016565537    3.83175739812288
C          -2.33266139304934    0.90044286603042    2.90223352286401
C          -3.54244732672173    1.42805100940590    2.55717578474463
C          -3.94784985192272    2.79704667073204    2.45377084595749
C          -5.31769794306844    3.08750806625066    2.62734458569046
C          -5.75421406613877    4.38125586164051    2.53005997303536
C          -4.84685012953574    5.41725213358031    2.23088571795939
C          -3.50270970163778    5.13910119532478    2.01988555277980
C          -3.06304410919709    3.83777029762538    2.12926941966473
C          -5.57572442378818    6.65960135637445    2.16060757184117
C          -6.94114949944472    6.39297631607596    2.36455120810498
C          -7.14749265873825    4.93718695681131    2.71848863818446
C          -8.19491333826310    4.23517714065098    1.84192865306011
C          -7.82503135342381    4.24946941179206    0.36617855141775
C          -7.57433583260060    4.81516237488536    4.19908731191226
C          -6.60693323926953    5.48184918227974    5.16934054081782
C          -7.85913551506755    7.41025288303776    2.28578973326420
C          -7.42747338876877    8.72896903281497    2.06888768017995
C          -6.05932219222270    8.98187051010057    1.92330911528327
C          -5.13626182234020    7.95786955245363    1.95198317718872
C          -8.42751756957418    9.77700280154837    2.06323131733235
C          -8.22093983282335   11.06974348924769    2.36019815415545
C          -9.26805659183930   12.05733074095289    2.56185910672673
C          -9.01590769038939   13.43826111176835    2.62760434601707
N          -7.85813796024379   14.14279743637925    2.32365414996962
C          -7.03189577106908   13.73131056760214    1.20066416597229
C          -7.04128163981649   14.76080120656741    0.07417608118750
C          -8.04432733293708   15.45871228070608    2.73135932183541
C          -9.37652005051919   15.61620761777835    3.18765851410157
C          -9.99480700070834   14.32410680281957    3.12324228085899
C         -11.27106956899027   13.88867380514288    3.44409954531622
C         -11.55506921638386   12.54628995824462    3.28542819928116
C         -10.57088352210068   11.65936543665305    2.87932226293453
C          -9.88575103632354   16.84218843594451    3.58332230792105
C          -9.05358837584521   17.94411879195970    3.52503749221069
C          -7.73269479909318   17.79237029725000    3.14818996031383
C          -7.16277759244305   16.55694647515470    2.79957717935528
C          -5.72981123000416   16.55449649359784    2.65441472999377
C          -4.87693210945504   15.51536885075159    2.80853001544288
C          -3.47022166949440   15.64684578161606    2.72254851309192
C          -2.62493461016944   14.59598762189469    2.50354909973963
C          -1.20819776506427   14.60346011299244    2.43397133534454
C          -0.65408176720049   13.41808766408883    2.05794086134321
C          -1.59902306587516   12.40805052418463    1.77398850864090
S          -3.22073605600429   12.98547716937066    2.10803296260333
C          -1.40830314655972   11.16826461218361    1.20344491054716
C          -0.21853844775251   10.50731070091082    0.83073129976456
C          -0.42574159405800    9.33032902130149    0.17726060874590
C          -1.78887162272647    8.99020495764266   -0.03199597619549
S          -2.79583010499596   10.21935539674332    0.71679567031397
C          -2.21683541257354    7.85216216157947   -0.67017998335303
C          -3.49956984130179    7.38410028947557   -1.01306069494909
S          -3.61572187404587    5.66308335211787   -1.32032484955719
C          -5.29457938208607    5.72880589373307   -1.57428874199535
C          -5.78848100129274    7.01160244149413   -1.46026071474143
C          -4.76633153971871    7.97667913596035   -1.17091097406865
C          -5.11800829324865    9.33607563424425   -1.16147939276874
C          -6.43126850481437    9.70922029829192   -1.29334277475888
C          -7.44676309582637    8.74775841936754   -1.51322062999679
C          -7.13088480981805    7.43054660013087   -1.62247675704190
O          -6.81490608869557   11.01167802710577   -1.23502992449067
H           1.25299210435133    1.66796634567096    4.98148719877300
H          -0.37230398355434   -2.84796056361654    3.54670504776693
H           3.43819884330460    0.26329839266115    6.03922369129874
H          -4.33961139000571    0.71884015479649    2.36257961489888
H          -6.00268317940474    2.28338006127278    2.85660729509568
H          -2.81202277553137    5.92949671989969    1.76776471751594
H          -2.02934219554364    3.61081702623420    1.93286331113498
H          -9.15609287877536    4.73440273010776    1.98123568032307
H          -8.30577609984064    3.20290118343465    2.18049562695218
H          -8.61113080169962    3.78534314098065   -0.22529792402963
H          -7.68671476386703    5.27283587634354    0.02725366172541
H          -6.89992792094881    3.70134874003891    0.20174583630279
H          -7.65899829708284    3.75466324441621    4.44658148934138
H          -8.56314056687624    5.26545246735463    4.31005250925254
H          -5.61480735104461    5.04283151310596    5.09054198795558
H          -6.95914467728611    5.35241193023997    6.19026700769338
H          -6.52783343759288    6.54734419107412    4.96597498475300
H          -8.91359549878285    7.21592644446178    2.42409153427666
H          -5.71604581656512    9.99321377735668    1.76849472846978
H          -4.08550431009428    8.16491337586719    1.82918447566405
H          -9.43290054654473    9.43425650852211    1.85733409598275
H          -7.21615616290267   11.40572412862437    2.57843359173732
H          -7.45640702173901   12.79909451870324    0.82088587934523
H          -5.99959761210413   13.53573585141835    1.50677394851740
H          -8.06413803327857   15.00457308898993   -0.20461373702176
H          -6.53424347979943   14.35128658255191   -0.79560292160045
H          -6.53338536892415   15.67421213180472    0.37106399732715
H         -12.01233951187508   14.57885952500058    3.81586603421964
H         -12.53997039991834   12.17101889243843    3.52063728008108
H         -10.81147807972391   10.60826335486095    2.85696278702988
H         -10.90738364377222   16.92759295613224    3.91949254644358
H          -9.42196291926183   18.92081227395322    3.80039879702484
H          -7.08567831436456   18.65787424238439    3.16571522619499
H          -5.29131146151733   17.53288318762591    2.49070086966028
H          -5.25300668447685   14.52626999496526    3.02261972188178
H          -3.03673556025433   16.63559088124027    2.79484771975841
H          -0.64676902863208   15.49361055171478    2.65779783097872
H           0.40197174110153   13.24964347614062    1.94178634245424
H           0.75104752372067   10.91682942413334    1.05143983978945
H           0.36288054970277    8.69504159544760   -0.18678895349849
H          -1.41939478734992    7.15546672954311   -0.90798267987787
H          -5.83569621216323    4.83331295205925   -1.80411351989967
H          -4.35996917888050   10.09393194012061   -1.05738354681991
H          -8.46022957111117    9.10029312933483   -1.61733253608215
H          -7.88829172779885    6.69413226871457   -1.84352535540225
H          -6.04034338527498   11.56681259062207   -1.07841983764291
