105
 SCF done       -188.839960956112          0.000799031976
C          -4.41131439533550    6.32593520895409   -6.70465278259210
C          -4.80517024076999    7.10633538081633   -7.75978485063124
C          -3.95870218605011    8.01193773340778   -8.43328879595183
N          -3.31877138107758    8.76931542166130   -9.01190836017988
C          -6.09328788903712    7.10189781868634   -8.33489219279492
N          -7.11236873073377    7.14979302836642   -8.86253615188379
C          -3.06906623664670    6.26653518611625   -6.14321192985719
C          -3.03453303033406    5.26065606548480   -5.14611671239319
C          -1.89982437534758    4.96663269827955   -4.42950714079090
C          -0.74276678684621    5.70084949493316   -4.70886530971232
C          -0.78637316396419    6.70448318435732   -5.70675388535489
C          -1.93290453716341    7.00103009114988   -6.43202617301660
S           0.75142634018266    7.49284159385270   -5.88780694197344
C           1.42243852980370    6.47906073173962   -4.63772900212450
C           0.54272410509627    5.59393079829069   -4.11145568427285
Br          3.21952879113106    6.68734853542549   -4.14411201507242
C          -4.36466821250222    4.62978912722444   -5.03091368111209
O          -4.67006721710519    3.72584943518120   -4.28506041117016
C          -5.23585756522981    5.37151461623725   -5.98016585986212
C          -6.59279412924231    5.31452434809377   -6.00663437673305
C          -7.41338970761854    4.32259826741215   -5.36623943586836
C          -7.10057033092168    2.99279691425100   -5.44993309805328
S          -8.30295046742689    1.94401165389413   -4.84435227520958
C          -9.27640745398686    3.31181351025532   -4.38343198594781
C          -8.68726535626364    4.53763028874111   -4.71519626986805
C          -9.33152776755145    5.73760314164560   -4.33347979369510
C          -8.61920514931458    7.03895341763776   -4.60122083318493
C          -9.07709392132602    7.71374685818508   -5.89662346861308
C         -10.56948922812241    5.69802426831509   -3.69859209802370
C         -11.32068893638726    6.97231135678627   -3.41368261334613
C         -12.54525312620827    7.10348889366182   -4.32262664992917
C         -11.16340305198008    4.45295136729318   -3.36661016690977
C         -12.40864157057387    4.12939588643079   -2.69741861970471
C         -12.61053331203348    2.78061511813194   -2.62919345453327
S         -11.35574644118561    1.82629747279125   -3.30088223377381
C         -10.49715381762354    3.27032909042148   -3.73324997203283
C         -13.36331519286904    5.02548910683884   -2.08297443042343
C         -14.68626808439053    4.78125229484645   -2.00852038572069
C         -15.61451388996623    5.63349724169165   -1.34459133624381
S         -15.06028598573845    7.10746366891970   -0.60882509049716
C         -16.65421079201816    7.48533329723162   -0.09507997558662
C         -17.57883996823393    6.56305721150587   -0.46152812915244
C         -19.01013394634246    6.70610271724581   -0.06007801383850
C         -16.99794428474071    5.47473639738111   -1.19836797378739
C         -17.66193909138446    4.32615993191225   -1.72651979852220
C         -18.99394787354239    4.11795345944136   -1.90164097906752
C         -19.56382255606403    2.94249475830010   -2.45282224045676
C         -18.89565459444322    1.83907514532598   -2.90732639276858
C         -19.53238142127925    0.72061070689643   -3.45766140675098
C         -18.87612172574830   -0.38042893926497   -3.95435370703889
C         -19.46030483491256   -1.52840530304954   -4.53788636920213
C         -18.56327076230162   -2.46037483550316   -4.96513370420984
C         -17.21454578822948   -2.10421681033425   -4.74123690407685
S         -17.12395088260799   -0.54064243842830   -3.96277405022838
C         -16.08632509912312   -2.83034394314789   -5.06992801147864
C         -16.02896877693806   -4.08319309403585   -5.72095695274204
C         -14.76511914042764   -4.54293247258706   -5.92297979816948
C         -13.74570676457974   -3.68145228240082   -5.44085974916931
S         -14.46650743441397   -2.25659365936749   -4.71360117971866
C         -12.39944345172062   -3.91206706519961   -5.53122771599599
C         -11.35664826130751   -3.09136564916678   -5.06787285004962
S         -11.55999601818083   -1.56847425294823   -4.21601272761283
C          -9.87342562811810   -1.29174817254759   -4.04742155972493
C          -9.15474200440906   -2.31336940381743   -4.62219094563401
C          -9.99569826298752   -3.31852801580984   -5.18858999809244
O          -9.26236890192033   -4.30591467289305   -5.74503221010384
C          -7.96604587677158   -3.94236767247084   -5.54286817022165
N          -6.95962184117322   -4.80367084605854   -6.03452128652449
O          -5.80784132150321   -4.45317259661256   -5.84952147499309
O          -7.30323039499649   -5.82068768036951   -6.59903775967754
C          -7.82735088929560   -2.75521604291472   -4.87346500915542
H          -1.90567742206402    4.19410887095931   -3.67659070494638
H          -1.91688489850010    7.77729023612205   -7.17864219881574
H           0.78828811190339    4.89445059079180   -3.33339592057237
H          -7.12264190345195    6.05122286933886   -6.59381348267977
H          -6.23225412949020    2.57014035500854   -5.91540175848422
H          -7.54644264081533    6.83822309473836   -4.65049128656865
H          -8.76140058920002    7.72558033613949   -3.76469048789364
H          -9.03643049244316    7.02502568393876   -6.73762857091849
H          -8.44246473852105    8.56825658867713   -6.12203898984197
H         -10.10118388042754    8.06473343143880   -5.80832215246176
H         -10.68689104892509    7.83954065122879   -3.57634063198347
H         -11.62590296688742    7.00215828922386   -2.36855360944976
H         -12.24169128815351    7.09044361595643   -5.36715432276606
H         -13.05965669669945    8.04033682999817   -4.12121557640347
H         -13.24410574967616    6.28738289044388   -4.16238309107062
H         -13.43343032425472    2.27696371304620   -2.16133883637466
H         -12.98518671703568    5.92072766259416   -1.61431451577705
H         -15.08703414361370    3.90512922551065   -2.49775779840562
H         -16.81788392499654    8.38404991816340    0.46705848335401
H         -19.10805345154575    7.51323018962905    0.66287578031936
H         -19.37476999375020    5.78617679191253    0.39315632063444
H         -19.63320329184319    6.94745575494334   -0.92082219163527
H         -17.00052577510447    3.53313497552545   -2.04331336497191
H         -19.69903512797727    4.88857829769212   -1.63746675957611
H         -20.64451783009875    2.93084555533305   -2.52828065809837
H         -17.81552858016341    1.80054966806875   -2.86480418898855
H         -20.61374807809356    0.71550796007832   -3.50969193981603
H         -20.52805486218419   -1.62734362487228   -4.62621516273508
H         -18.83444042992995   -3.38959791686752   -5.43283445040607
H         -16.91742421683215   -4.60651412167710   -6.02513135750802
H         -14.52373969920086   -5.47385421623922   -6.40442528728200
H         -12.08151171635921   -4.82589926613492   -6.01601132669352
H          -9.52258710711433   -0.41203870542395   -3.55128657155389
H          -6.90334070412493   -2.28417428813358   -4.61010987678869
