102
 SCF done       -211.176354843093          0.008165748131
C          -6.54994503755972   -2.38227082781096   -0.94131929473778
C          -7.41502068270440   -3.35519600415809   -1.36662320154121
C          -7.13658340124824   -4.73590122045641   -1.31264014774536
N          -6.95757746663234   -5.86976309179685   -1.28323924175839
C          -8.65556880235838   -3.08541114965857   -1.98393034873475
N          -9.64462433030804   -2.93018960860091   -2.54548216638835
C          -5.18038998902396   -2.58416366527311   -0.48774608975475
C          -4.56031299550682   -1.31799446116129   -0.34616046451293
C          -3.25246035265143   -1.17638736762965    0.05095679506040
C          -2.52016973431270   -2.33885525066506    0.31409406541269
C          -3.14934169219531   -3.59906154365832    0.17392256981692
C          -4.47384555249604   -3.74272037696867   -0.22341791372987
S          -2.06378801813374   -4.90005188284695    0.55505057096157
C          -0.79590544483046   -3.75107778241426    0.88956273835339
C          -1.16514939060376   -2.45844735228167    0.72592467101690
Br          0.89254243275008   -4.36499212977517    1.42022397595087
C          -5.52980264516955   -0.25085322136674   -0.66226339531714
O          -5.35086867052631    0.94145968227094   -0.53766462225005
C          -6.79096344119236   -0.95664817225887   -1.01279221570164
C          -7.99789390722292   -0.33812969880783   -1.14996574184231
C          -8.16117516665434    1.04068617011200   -1.46168086845095
C          -9.23861907202943    1.78830625253931   -0.92876906694341
C          -9.43576121888988    3.17141065421797   -1.25239775214440
N         -10.42427111780752    3.85772188984788   -0.67588231148339
C         -11.21604128288287    3.24159040628944    0.17820254248262
C         -11.03786103863366    1.85680766665120    0.47434612161273
N         -10.05789011825723    1.17350001727271   -0.06193965344633
C         -11.92736552709686    1.21579922247414    1.37514159174349
N         -12.67157844690570    0.74851521026176    2.10978335206408
C         -12.25914199180854    3.98522270685847    0.77937453988015
N         -13.11741476321306    4.57352521278468    1.25961538359545
C          -8.59274705930580    3.86881485637045   -2.18317771853433
C          -7.50565833196438    3.11252752071787   -2.68606036455513
C          -7.31219457336078    1.72310983388034   -2.35402196751975
N          -6.27772558103014    1.19929342321921   -3.01487316016841
S          -5.56310611813061    2.33620699410247   -3.87907653232296
N          -6.56490146893378    3.54538279141159   -3.51930172997335
C          -8.93340727396665    5.18108120572890   -2.53001528570525
C          -8.36799923916456    6.06794140344101   -3.42666396426386
C          -8.95126239362983    7.32322434748284   -3.74061148297956
C          -8.29543383495334    8.03519492727244   -4.70220920193271
C          -7.14493455635635    7.37628206382427   -5.17756561776575
S          -6.91662682071119    5.84431210836959   -4.36323990774833
C          -6.30896346612638    7.69555545970479   -6.23570935499153
C          -6.45930102455717    8.66183814486406   -7.25314524831291
C          -5.63867828810858    8.45402038802627   -8.32225032410542
C          -4.82167147507809    7.29705058272609   -8.20686232969568
S          -4.96457591417083    6.63789408953625   -6.60160892268705
C          -4.03893497624458    6.75947399752572   -9.20224651742533
C          -3.42799939218996    5.48856764955977   -9.27768396228892
C          -3.81512560824027    4.27260872855105   -8.72166877721304
C          -3.01287352255141    3.02681451817452   -8.84151397019265
C          -1.80155618609047    2.94533964367450   -9.56150705448606
C          -1.31234504408375    3.98208398142243  -10.26911251792756
S          -2.02892180014313    5.54469050366328  -10.34514156571753
N          -3.57159370878746    1.99369286075837   -8.24882932135072
C          -4.75643327233718    2.43275462386382   -7.75238277040352
C          -4.94709771383905    3.82368375327926   -8.02255589241908
S          -6.47085006380586    4.35351362038512   -7.44250044055032
C          -6.80791705128562    2.76840156308306   -6.76646864927700
C          -5.80241999951196    1.85091676833005   -7.04485075861441
C          -7.99279157100746    2.67688726457352   -6.00858113531706
C          -8.57865443709185    1.56067139432181   -5.49001529149351
C          -9.74801505735706    1.58000112460372   -4.69779446025685
C         -10.66853806011660    2.56792314497269   -4.47133208179128
C         -10.94893946564738    3.85148590340470   -5.07744078419166
C         -10.74546027264943    4.22463491393422   -6.38378786808932
C         -11.05492402904468    5.49746355278271   -6.89793556148924
N         -11.25619096191344    6.53145291492996   -7.35857032468475
C         -10.27532636693086    3.34967714893713   -7.38335203702767
N          -9.93671357964697    2.66047151787873   -8.23641499499200
C         -11.77679730399117    4.60774838693700   -4.14255742483494
C         -12.25362077846325    3.71946275467614   -3.14801528986023
C         -11.58564822171397    2.41626971107367   -3.30976099826681
O         -11.68582866371197    1.45071601976005   -2.58497556471543
C         -13.17140991041819    4.09949912212294   -2.19914432975518
C         -13.58634227860274    5.43671798387469   -2.18886678769615
C         -13.05952787493441    6.32779327525890   -3.15143510928197
C         -12.17135165309132    5.93160556752991   -4.14428079355352
S         -13.69579982786093    7.93513812990592   -2.94335226305743
C         -14.65355917590229    7.38744619389215   -1.59250561510158
C         -14.50125489369239    6.07216872574727   -1.30521896040173
Br        -15.76363677011600    8.60089272401805   -0.70058764656311
H          -2.80661551479105   -0.19941956888822    0.15084836995188
H          -4.91340099473718   -4.72251173292129   -0.30839101443538
H          -0.51132844924210   -1.62221715883671    0.88832043490559
H          -8.91552195982460   -0.88845110241307   -0.98172614431337
H          -9.82383782580259    5.54324822975928   -2.02744049739850
H          -9.85394011712638    7.65084539217599   -3.25574735285928
H          -8.61267076077314    8.99372653848957   -5.07198833186481
H          -7.19833274209262    9.44068089985041   -7.19651160582124
H          -5.64697544007131    9.04755944819799   -9.21895516559179
H          -3.82890595380060    7.41701340028968  -10.03900954761405
H          -1.29295184841172    1.99346446770772   -9.56446944673283
H          -0.41074559387198    3.91788230365850  -10.85598838605092
H          -5.82492350034562    0.82592752507209   -6.72537215408683
H          -8.43633397208529    3.63633690095651   -5.78238738396965
H          -8.11432265706785    0.59695391452325   -5.64371484052116
H          -9.93553493141431    0.67950166714605   -4.11632631805498
H         -13.57311544050555    3.38642290299507   -1.49252823396946
H         -11.81081556640528    6.64297705695693   -4.86900785507315
H         -14.99850084548579    5.56842883495900   -0.49701825333702
