106
 SCF done       -195.339763587147          0.000593801140
C         -15.48228848404517    7.60623088545078   -2.16118187031996
C         -16.33794051985897    7.61909656361282   -1.09061354780504
C         -17.73037231494083    7.41832162646229   -1.18332850945852
N         -18.86727455115703    7.26077463446019   -1.19580127424488
C         -15.93072885386703    7.85126990867027    0.23867586061897
N         -15.63874670238993    8.04326189917978    1.33219651790961
C         -15.85373211372282    7.38814037648861   -3.55533117331608
C         -14.69417197580258    7.50694723035970   -4.36840103011060
C         -14.72575199540380    7.34562966022281   -5.73372727460763
C         -15.95672357198597    7.04147270883317   -6.32128876131683
C         -17.10752016047914    6.92453976281280   -5.50573702187916
C         -17.07708951703344    7.09600537188381   -4.12621984226368
S         -18.51613890154122    6.54126438551310   -6.44455093814779
C         -17.55202638295776    6.53927659344541   -7.89961874183951
C         -16.24242345090692    6.81462061177786   -7.69493098862238
Br        -18.37144434456367    6.17863594263071   -9.54581462912816
C         -13.54606540608658    7.78520741893033   -3.51033360646669
O         -12.37627148553204    7.95655347800084   -3.85591187542818
C         -14.05152934964702    7.81750621806934   -2.13054891259720
C         -13.21278992274665    7.98298208172602   -1.05592611510938
N         -11.89854012665452    8.11912884072651   -1.27657079877388
C         -10.87532687199176    8.22076065948762   -0.39784839626701
S         -11.10290207194987    8.42649016094434    1.30557858061213
C          -9.37821149594646    8.41463840796781    1.51212071508557
N          -8.87725758539640    8.56067030579339    2.81285711435728
O          -7.66926088822839    8.55076629486994    2.95583830111182
O          -9.69736629451423    8.68683684959175    3.70439819912689
C          -8.67945891704127    8.25440048763906    0.34495089292850
C          -9.52278259725811    8.14324320452711   -0.77388216533585
C          -9.14527800544233    7.91379621732479   -2.13840540708457
C          -7.93872203733348    7.59273135235604   -2.63896420263600
C          -7.81022783144019    7.28911146763702   -4.03663319903956
S          -6.38970763493116    7.71283134497772   -4.93485564727481
C          -7.09023569688239    7.20281628583705   -6.44293732744512
C          -8.36260942382732    6.70771227086447   -6.23168280442367
C          -8.75662748954216    6.73197127437616   -4.87680273949124
S         -10.16086269555487    5.87145180112318   -4.23897993991510
C         -11.36722983202157    5.83497746579998   -5.50869422595712
O         -12.41537106404780    5.28320958914024   -5.29348818343874
C         -11.09701677498730    6.41964328123401   -6.87422767732016
O         -12.00316332539581    6.75736173804397   -7.58593084480470
S          -9.46330990550444    6.34214303469011   -7.56471731213127
C          -6.34006544597457    7.35058633385872   -7.66714920571328
C          -5.33964018592127    8.33167571242037   -7.74323095063403
C          -4.62871477594209    8.48301756747938   -8.90586826973855
C          -4.89488618058559    7.66561381279570  -10.01874142760421
C          -5.86987591623107    6.68085934800082   -9.94566046521643
C          -6.58062926817524    6.52654133595717   -8.77253167195468
C          -3.99236845228269    8.03521180242132  -11.08436913785435
C          -3.16110664789916    9.07709558778714  -10.63095328399300
C          -3.54931937587040    9.49297438333610   -9.22922060844037
C          -4.22006346876747   10.88751682051171   -9.20956529536684
C          -3.35880289591476   12.04655396399932   -9.69310209193809
C          -2.37241058144304    9.41506733681677   -8.24621322817046
C          -1.78600164480815    8.01084968605938   -8.15563533175853
C          -2.15312203017458    9.55942023952145  -11.42779494171872
C          -1.98251763575741    9.04976675492997  -12.72728401652807
C          -2.84812686379794    8.03591071537774  -13.17228840979107
C          -3.83547704486050    7.51741858976519  -12.36327664346191
C          -0.97179909591903    9.52682764856898  -13.63073617476045
C          -0.00847464082227   10.44283635751751  -13.35540505182859
C           0.97387320705880   10.93584240875639  -14.24532581333897
C           1.15421395780955   10.69538457032884  -15.58185509608665
C           2.18903340541152   11.27990294297020  -16.36598319908417
C           2.17856455764595   10.93293349139576  -17.67732967260887
C           1.13102198867309   10.04433164533973  -18.02819973471497
S           0.16771897677075    9.66832210342688  -16.61064696044226
C           0.84735692628743    9.51634802328396  -19.26302217404101
C           1.54921626820440    9.74201774571523  -20.48137429528260
C           1.03852664405753    9.09012359379038  -21.54813068620053
C          -0.11688444841272    8.28923021528551  -21.25783436462864
S          -0.50049688189593    8.42808255274008  -19.53443382548437
C          -0.83008701028166    7.54005269187000  -22.10889876008555
H         -13.83703728623197    7.43229232513945   -6.33756205306275
H         -17.97900177669474    6.99318273209455   -3.54619502122379
H         -15.50048542771939    6.85096674611345   -8.47159311179496
H         -13.55781659616774    7.98914627260820   -0.03030132577614
H         -11.66804497709420    8.08753678798481   -2.28835772033133
H          -7.60597926768332    8.22671837373169    0.31422929111506
H          -9.94970841552756    7.98389358358718   -2.85479039701472
H          -7.04092563381782    7.58350116158825   -2.03999505269579
H          -5.14886563327512    8.96027559974314   -6.88513575404527
H          -6.06669333060711    6.03544984864681  -10.78777364032198
H          -7.31239506556538    5.73763446041383   -8.69717349171258
H          -4.54181215431726   11.08530797860585   -8.18444324767010
H          -5.11692280356887   10.83570314673161   -9.83258926364823
H          -2.44387875693995   12.13098895495063   -9.11262153037647
H          -3.91373300303862   12.97577995729800   -9.58240728311215
H          -3.10505664404047   11.92965160437955  -10.74300316905605
H          -2.71523203163596    9.73117130033543   -7.25865131904245
H          -1.59174893954945   10.10533446866484   -8.56781976377463
H          -2.53413921108423    7.30227106321567   -7.80712725240231
H          -0.94968767794455    7.99765470156463   -7.46055571580054
H          -1.43023071083605    7.68163483054245   -9.12950877027826
H          -1.48727455815591   10.32375791402193  -11.06116431384043
H          -2.71885083024369    7.64929468076578  -14.17294255640998
H          -4.47459254314962    6.72223257654495  -12.71697030563191
H          -1.00509915570200    9.08777006109532  -14.61749188876467
H           0.05006915515779   10.85511142856168  -12.35676142779818
H           1.69124389726857   11.62402977967183  -13.81367084089416
H           2.90838705292930   11.94578847956007  -15.92169503640755
H           2.88727021862521   11.28902361763578  -18.40328962601122
H           2.41123347247389   10.38437793425732  -20.51863944982305
H           1.43320956750680    9.13966028003910  -22.54747996444840
H          -0.56183334806041    7.48547284223526  -23.14917851108665
H          -1.68522443335092    6.97528882348083  -21.78594889297447
