102
 SCF done       -203.233733969560          0.000837251240
C          -7.86720265977242   -1.94782649029182   -2.11035413698981
C          -8.23289936355393   -2.75223228084220   -1.06336846479294
C          -8.10141632877389   -4.15630612995929   -1.05433761784347
N          -8.03357309460791   -5.30017877672647   -0.99081325352339
C          -8.77202275890488   -2.27272544968775    0.14782574548656
N          -9.20614038058292   -1.92160036740720    1.15099370185981
C          -7.27565330008359   -2.38894398505952   -3.36844290435446
C          -6.99736210221712   -1.24808151781979   -4.17010848896954
C          -6.49571070092262   -1.35317858219850   -5.44561594796643
C          -6.22478039776960   -2.63350404101383   -5.93948691511592
C          -6.46274434771190   -3.76091136506959   -5.11693819825670
C          -6.99709511414978   -3.65676860015814   -3.83720316614078
S          -6.01944871207989   -5.23457564025713   -5.90549541207790
C          -5.52077318143574   -4.34013202143160   -7.30832188178332
C          -5.68555628637330   -2.99805484581815   -7.20014281524948
Br         -4.81926951779976   -5.23939584575181   -8.79456242856672
C          -7.35854930361846   -0.04615711472228   -3.41798680731922
O          -7.16656747906947    1.13129523610238   -3.74006814718302
C          -7.97994473562886   -0.50679366330079   -2.17957452440429
C          -8.62425122963788    0.34966548215820   -1.32012726503107
N          -8.66365275796702    1.66417706052489   -1.56330986813042
C          -9.38280524584063    2.59488025825695   -0.87985446240280
S         -10.50100833091882    2.12003886113120    0.36626793043619
C         -10.98877508569365    3.77452944524868    0.52803060140134
N         -11.96553522843299    4.08722333319628    1.48333863058399
O         -12.29551924897592    5.25413526022405    1.58822650402228
O         -12.41269350500914    3.16318800216064    2.13794231496222
C         -10.33532560869065    4.62323547773457   -0.32282704156459
C          -9.38427968584709    3.97049848192806   -1.13485393253679
C          -8.55811372856120    4.71107761170926   -2.05081441138308
C          -7.34270002604639    4.36713409401099   -2.52786232356838
C          -6.53507650245225    5.19842173173163   -3.36194565416402
C          -5.60756541732054    4.71860936540385   -4.28986837967405
C          -5.06549571059567    5.83275430097401   -5.02708416599065
C          -5.66529956040131    6.96404736467646   -4.58878909222841
C          -6.54612706542508    6.64182096842562   -3.48722921255216
C          -7.05597909763341    7.60663636083518   -2.64364418070664
C          -7.49343396895834    7.42681271275207   -1.24837421989972
C          -7.84796265981093    8.62305317195097   -0.75739732997082
C          -7.67952452466192    9.62191909507041   -1.81537241939483
C          -7.17122511880535    8.99484766533376   -2.92406147731926
N          -7.95525784786137   10.93096464062688   -1.64026280857447
N          -5.31430385790161    3.40635806945044   -4.51142256266182
C          -4.27870467897570    2.95205145244638   -5.25361581869156
C          -3.99811057952869    1.63946687566169   -5.41229839489305
N          -2.92384651197869    1.22443005454726   -6.16175869581972
C          -2.49204731247274   -0.03229333977589   -6.31720646238003
S          -3.28349035522371   -1.35765163280630   -5.52739991455644
C          -2.09025302135530   -2.44377239469346   -6.18870100860270
N          -2.28238864982368   -3.79121458225568   -5.92428269910387
O          -1.46612504680385   -4.59499718833432   -6.33612464029848
O          -3.30033269611406   -4.07481328638636   -5.29457535896824
C          -1.13173085806436   -1.81691434108874   -6.93861089035300
C          -1.34546312538080   -0.43209929804980   -7.04837086004222
C          -0.54494183770294    0.49601448624387   -7.77345525923955
C           0.74791648960607    0.30689257739598   -8.15085759464393
C           1.54455769654758    1.23786059795586   -8.85210758023604
C           1.38225916971560    2.57727650553001   -9.10828712089616
C           0.50079074664483    3.59899664245536   -8.61253696224004
C          -0.11306985636977    3.65466483083563   -7.37771865857270
C          -1.10514099207911    4.57713765053314   -7.01467227658917
N          -2.01122572220272    5.19647368929414   -6.66694564786711
C           0.14304011993616    2.75651928579960   -6.32622275633563
N           0.29608794353512    2.06714607347026   -5.41951111370745
C           0.51992474555457    4.70646052144387   -9.56244949433416
C           1.54691310637511    4.47311806591813  -10.50995072480205
C           2.17442298892863    3.16532684768646  -10.22357449942779
O           3.11021984871050    2.65608354912550  -10.79586131638935
C           1.84882149817049    5.36867643709796  -11.50501494337703
C           1.09307054804900    6.54575222192688  -11.57535227147581
C           0.06455079316355    6.76530334801035  -10.62903893003583
C          -0.23295424555361    5.86366594237409   -9.61421762432759
S          -0.74358090219847    8.27911261824890  -10.90266138664680
C           0.30012343762830    8.59539494049634  -12.26303766062970
C           1.20577444044086    7.61741657280356  -12.50260527732237
Br          0.09282292795752   10.18510187971550  -13.23668501310554
H          -6.32361719003507   -0.47826734532058   -6.05389385764691
H          -7.17781383836879   -4.54285625312876   -3.25216136427845
H          -5.42634726071169   -2.29777974484154   -7.97361932571486
H          -9.13924677797169   -0.00310518528816   -0.43656401705959
H          -8.18176285481374    1.95758505697182   -2.42492735793416
H         -10.52047881477666    5.68219207690845   -0.34264550283965
H          -8.95603045778864    5.68000057230063   -2.31699320196573
H          -6.90832544685661    3.40740385829331   -2.27865102727071
H          -4.32246481990813    5.77021001403113   -5.79828913878879
H          -5.45745215560748    7.96181351431499   -4.92250804790440
H          -7.43774637951267    6.50043113639644   -0.71183335458985
H          -8.18406546032526    8.85401473584696    0.23664551068883
H          -6.95597661090498    9.45978099182223   -3.86578275016520
H          -8.44322173300809   11.23491540394513   -0.81679448735497
H          -7.88875512373304   11.56450035485197   -2.41709932144786
H          -5.91120445469512    2.70503468190151   -4.08144678189741
H          -3.65091543589527    3.70448313434088   -5.71040275923529
H          -4.58978400859026    0.86240081458741   -4.95466820535224
H          -2.36318351549045    1.96097959175467   -6.57185677242162
H          -0.33783944636619   -2.35675638154744   -7.42094715435098
H          -1.03562102216415    1.41581304572427   -8.06405953986761
H           1.21645878942646   -0.64160314775415   -7.92991898241973
H           2.42508532444633    0.82281252111079   -9.33482676578418
H           2.64449187590194    5.17236828365686  -12.20621661541804
H          -1.02548836587951    6.07522979601918   -8.91493752933358
H           1.92549585361360    7.64910353632614  -13.30010630450431
