83
 SCF done       -168.467572418724          0.000798456558
C          -1.75325975610907    0.59290055171878   -0.09913328681758
C          -1.81694365327283   -0.78972265540630   -0.11563488321392
C          -0.73468229968133   -1.63748377258544    0.17595021651206
N           0.08227046315580   -2.40092437335226    0.44548151316068
C          -2.94515744348235   -1.55525040299927   -0.45004454298340
N          -3.80471974550262   -2.27866523243057   -0.70054975147289
C          -0.54097858651692    1.37219179175607    0.14807589425559
C          -0.87670126442183    2.74732042631374    0.12530168520988
C           0.04505987235447    3.73956748343884    0.33865844620369
C           1.37051092041357    3.35581286910903    0.57953215015898
C           1.69857602630871    1.98189749747749    0.58963026572948
C           0.76047924586827    0.97616336354091    0.37771354602981
S           3.39002434683300    1.73109529474715    0.89987000581383
C           3.62926961389905    3.45492911486443    1.01085617512802
C           2.50232902018420    4.18101815702295    0.82612922963469
Br          5.34465716851072    4.12996222034011    1.35825095947546
C          -2.32423682708798    2.88476249116864   -0.13770147262425
O          -2.94887794083123    3.92464377493324   -0.21274315152812
C          -2.83861806217158    1.50481863368433   -0.26248986187361
C          -4.18370793182134    1.18453781651986   -0.41074646346911
C          -5.20399347062831    2.10986756316537   -0.49087152067741
C          -6.55351637578690    1.76878653709998   -0.52128966324061
C          -7.63198523709393    2.65683529672971   -0.63133162508458
C          -8.86132684225608    2.04337288332831   -0.63636152641009
C          -8.79172392658192    0.65010680087170   -0.52013919305068
S          -7.13241045329076    0.12395327455687   -0.39653697632371
C          -9.85799925477600   -0.25711461447195   -0.52958247227981
C         -11.21647230473417    0.02643627168470   -0.72112906159766
C         -12.01288300608938   -1.09170212331433   -0.73750121725916
C         -11.31348966998343   -2.29301484878501   -0.55002207676522
S          -9.60759931623681   -1.97047257974026   -0.33790874053427
C         -11.86668753819666   -3.56827538806017   -0.57141386265660
C         -11.20622639968579   -4.76354821361840   -0.38226304905423
S          -9.49901436325215   -4.92427958808898    0.04696263874168
C          -9.52257531053861   -6.68695339048786    0.05432878896223
C         -10.83519792466284   -7.11853660761714   -0.27337702916278
C         -11.73457939622879   -6.06059853834562   -0.49312730089816
O         -12.95698219184899   -6.51748192770210   -0.79353064904660
C         -12.85311600579533   -7.87384578750515   -0.76724453724981
N         -14.00287991968541   -8.63727009605836   -1.04984254121534
O         -13.87000612861326   -9.84854444505098   -1.01469629118063
O         -15.03243994786978   -8.04689347120967   -1.30527042917268
C         -11.58040782258089   -8.29944034328304   -0.45488388431623
C          -8.43129478168565   -7.47168785084042    0.32879860480578
C          -7.16078796423211   -7.03078104138795    0.70634846059212
C          -6.03973289548918   -7.84032932980770    0.93614530531136
C          -4.91731057905147   -7.14431725124018    1.31658455202780
C          -5.12555876738311   -5.76359014964580    1.41150288867463
S          -6.76735817260982   -5.35745175675735    0.98495110112273
C          -4.21893157423206   -4.77045928311335    1.78826365790230
C          -2.84408550393909   -4.90684943116998    2.04898766013579
C          -2.23035185378063   -3.73052673312741    2.37521861375813
C          -3.09771756942159   -2.61404058144265    2.39183899801400
S          -4.72205474463265   -3.12199717975592    1.98634986992004
C          -2.70401585886915   -1.31352819847238    2.62338136232825
C          -3.50198402142194   -0.15566797287641    2.65880047174710
S          -2.70382560658044    1.38986452486748    2.83817615161156
C          -4.20540450989460    2.22051205651046    2.71978778203403
C          -4.18375342609863    3.67624738470152    2.74009448904474
O          -3.20516189877299    4.33498081066647    2.99248355245684
O          -5.37666409527123    4.21842891828459    2.44582730801203
C          -5.26631866315972    1.34767747542754    2.58079097375333
C          -4.87901325192734    0.01521103423817    2.54741732066290
H          -0.24472785226854    4.77823173445438    0.32546973874397
H           1.06132766495205   -0.05829483155547    0.39686930311753
H           2.46712384189665    5.25463434018524    0.86107250509170
H          -4.46130332182274    0.13733429189021   -0.42739270318751
H          -4.96142673615262    3.16203201935317   -0.51891563643475
H          -7.48178590950797    3.71840584610090   -0.71081036754080
H          -9.79502752170483    2.56912491683334   -0.72098272924740
H         -11.58370994571527    1.02704576714268   -0.85782773548182
H         -13.07811692162333   -1.07406602572400   -0.88472804872416
H         -12.92723594217568   -3.63819506543826   -0.77745671893256
H         -11.26590752057851   -9.31945028021264   -0.37817450290168
H          -8.56828198611226   -8.54212371628660    0.24969949677466
H          -6.07653225670536   -8.90853217377197    0.81623411821279
H          -3.97010226635836   -7.60215364178972    1.53627090009458
H          -2.33662494523295   -5.85103185758189    1.97384665620403
H          -1.18057628263813   -3.62897760765562    2.58317744598259
H          -1.65001853796143   -1.16880903343179    2.82528434466130
H          -5.29029972437645    5.18458070754372    2.43287400665136
H          -6.28232017231624    1.69086073992201    2.50759314500457
H          -5.56972829242572   -0.80045328920532    2.44341321025246
