121
 SCF done       -214.373623284584          0.000358846245
C         -18.87262201919376  -10.69100498049555   -1.44700628910794
C         -17.56879495706198  -11.11662067745899   -1.56877993347033
C         -17.19534485422926  -12.41218488502152   -1.97488184393679
N         -16.82143384622092  -13.44892895503501   -2.30047907257063
C         -16.42091359669329  -10.33820409063786   -1.32341201933593
N         -15.43015001480266   -9.77994994083498   -1.15472533946360
C         -20.05061105106112  -11.51081391944844   -1.72904017662895
C         -21.20876362890476  -10.72088853821897   -1.53273670725999
C         -22.47874230968139  -11.20806133362306   -1.71545168611992
C         -22.61509675397667  -12.54448732322439   -2.10829815956960
C         -21.45342643734644  -13.32649214258808   -2.29947967435339
C         -20.16707945989756  -12.83132957797187   -2.11720521603868
S         -21.84788582308823  -14.95094260419712   -2.77748064137180
C         -23.54589241088703  -14.56003840805815   -2.71413161783615
C         -23.80646860821014  -13.28133860464352   -2.35493544931450
Br        -24.81525078041652  -15.87890234960340   -3.12750089324871
C         -20.80427816906253   -9.36296929802316   -1.10726996653443
O         -21.55458981323595   -8.43707785735076   -0.86245294811155
C         -19.33210207925801   -9.38881171507275   -1.04222377111740
C         -18.54735865214316   -8.33260988630942   -0.61872801203779
C         -19.02866567913606   -7.09369996045266   -0.21374163845545
C         -18.21007691587380   -6.08367593287782    0.25733907854089
C         -18.62459946289585   -4.81450094105134    0.72074522651138
C         -17.60688178570833   -4.02435022272156    1.16914097395335
C         -16.33618562730243   -4.62994584600339    1.07434460873276
S         -16.47381346400990   -6.23512606151413    0.38852605769569
C         -15.11413200915718   -4.10845732916216    1.45933032641368
C         -14.85896673000291   -2.86173989465686    2.07901301642559
C         -13.54690732432640   -2.64865651010062    2.35700916557045
C         -12.67530099989172   -3.70498829500991    1.96568781602319
S         -13.62741893123093   -4.98809036460479    1.22997048377254
C         -11.32506326371502   -3.69220006321568    2.17193996707578
C         -10.32119219228920   -4.65192343779514    1.84262619010590
C          -9.02045620938948   -4.43019850287505    2.34329869629731
C          -8.02394486765683   -5.33273687081818    2.08544574043360
C          -8.28005062134768   -6.47612192536695    1.30421583312288
C          -9.54969941391770   -6.69708792594932    0.78285800676718
C         -10.55351685636129   -5.79498129277784    1.05706573307808
C          -7.06697523873337   -7.25040890118276    1.21236087960706
C          -6.06238376289849   -6.60423915575902    1.96087715416848
C          -6.59074282764159   -5.32844223883469    2.57585877026836
C          -5.82141214356907   -4.09357030573665    2.07984831104907
C          -5.88195787547330   -3.93890557044058    0.56462821955529
C          -6.63385413034144   -5.39249242565116    4.11862276208530
C          -5.29989767741264   -5.56827665279755    4.83323512069795
C          -4.80802245764114   -7.14924182601887    2.04883475158396
C          -4.53317178230546   -8.37614875793471    1.41759832507286
C          -5.52662755023380   -8.97397191261929    0.62648122292968
C          -6.78780714651036   -8.42666441023624    0.52566918284300
C          -3.27907610961953   -9.04837718208828    1.62191276859680
C          -2.52472491552134   -8.87648856192189    2.73853228039287
C          -1.32790302062148   -9.55122020341419    3.03947958274024
C          -0.71500403942575   -9.44177198523863    4.26203302913209
C           0.48765947914790  -10.04616368718081    4.70178316776611
C           0.82130814723196   -9.75735451431695    5.99063782224825
C          -0.10839220722880   -8.91762143889608    6.64674709508021
S          -1.40725071336952   -8.48665051135238    5.57079049844254
C          -0.08467818967200   -8.46348118545031    7.95346566483939
C           0.88608275348806   -8.67552080591522    8.95226404559218
C           0.58494745425956   -8.07765304584764   10.14067693747091
C          -0.65180471149493   -7.39018460439004   10.15479882308086
S          -1.40326910460568   -7.49981850727371    8.58723784397832
C          -1.13994296906380   -6.64681435746257   11.21841568731050
C          -2.33409116949699   -5.94542151047574   11.32760007633456
C          -3.53191537795304   -6.01933295654667   10.63104158878876
C          -4.17140585822638   -7.04592276232092    9.87246014029268
C          -3.86820070652232   -8.39428583069848    9.87504138326187
C          -4.48565153499652   -9.34770925287578    9.04742278588080
N          -4.92032063073144  -10.16483185922879    8.36570479445972
C          -2.95648157090045   -8.98311560671943   10.76746385823294
N          -2.24153200806342   -9.50824809740624   11.49786705467331
C          -5.33480716025107   -6.45712611255714    9.20682374558230
C          -5.47202753393948   -5.11617669253726    9.63950253468566
C          -4.39413483265248   -4.81635029420841   10.60947796014482
O          -4.23532425205828   -3.78812712028913   11.23295008687355
C          -6.47302055577418   -4.29232938035814    9.19048760803216
C          -7.39039165450490   -4.82002528813664    8.27299777936292
C          -7.26868356391377   -6.17097770302881    7.87884244113666
C          -6.24877615412735   -7.00370105212237    8.32877810920025
S          -8.52380287738751   -6.62767631875110    6.76516291798267
C          -9.15160280937223   -5.00152956202762    6.80310022397266
C          -8.48165751633056   -4.16863817556547    7.63262815154654
Br        -10.61520087452120   -4.54973724746665    5.71600892791394
H         -23.34161058306299  -10.57996314912718   -1.55817723434173
H         -19.31456194885492  -13.47039897042339   -2.27447745625040
H         -24.79640001455321  -12.87243390620434   -2.26578889028481
H         -17.47433002921680   -8.47543120624469   -0.57807179572410
H         -20.09226934631942   -6.90731774614714   -0.24858471818789
H         -19.66150005060959   -4.52932977276090    0.71348376142254
H         -17.73900268784161   -3.03123434771099    1.55947885050004
H         -15.64826791920651   -2.16915040589205    2.30867639418733
H         -13.16378482312014   -1.76456764264210    2.83507872416298
H         -10.96079163799814   -2.81557485338778    2.69524865532096
H          -8.83202509231376   -3.55050142962288    2.94169219631977
H          -9.75193850457025   -7.56699497017245    0.17707959561878
H         -11.53462871030837   -5.96984359303914    0.64749187539019
H          -4.77785687361277   -4.17566728659012    2.38648299725496
H          -6.24308460636284   -3.20440630501937    2.55337999799498
H          -5.45570125541339   -4.81067677115203    0.07286761297062
H          -5.31972671964253   -3.06076563416154    0.25562433878130
H          -6.91019647558513   -3.82504531192348    0.22856025640902
H          -7.28611936099769   -6.22573470949990    4.39016666922070
H          -7.10434808226578   -4.47117955022312    4.47143859382184
H          -4.89233008676529   -6.55999144452789    4.65942031675533
H          -5.44539256472938   -5.45438063529322    5.90586917941989
H          -4.57512193977632   -4.82314077594759    4.51693395691759
H          -4.01778230377884   -6.63646883036650    2.57280301391646
H          -5.30071401205243   -9.90038262854744    0.11858808854317
H          -7.54811196889547   -8.90674771404853   -0.07138320925040
H          -2.98283423625170   -9.78605355554814    0.88737672745553
H          -2.88099823967957   -8.20239882781706    3.50721201447616
H          -0.87763537914808  -10.19319877713504    2.29454329329107
H           1.06784973612359  -10.67571463641371    4.05028319275481
H           1.69736116839863  -10.13063414757201    6.48950754572782
H           1.77397132213070   -9.25419880437281    8.77237274719670
H           1.20205775043995   -8.12804210045570   11.01960882658190
H          -0.44267124467482   -6.52892032060756   12.03881803825259
H          -2.32630794517379   -5.13582613790705   12.05329162973983
H          -6.55025363479903   -3.27288486464533    9.53463319600869
H          -6.18771832763515   -8.02219651343199    7.98364797690169
H          -8.73728636991522   -3.13570769079439    7.78395506041789
