91
 SCF done       -182.816950088386          0.000461035687
C         -14.15002548047119    2.14269319216988   -3.32278154926829
C         -15.17872972179169    1.59116672403656   -2.60554775162052
C         -16.35527191138030    1.06655663028819   -3.17973555443724
N         -17.33283741704241    0.62858463267445   -3.59144059890065
C         -15.19142845077233    1.47875711024207   -1.19993753028972
N         -15.23941640724424    1.36685595135529   -0.05856152745056
C         -14.09155681130804    2.27224081241372   -4.77586170330198
C         -12.86158147748767    2.88302113873151   -5.13714517856167
C         -12.51792163500266    3.14064486637854   -6.44301949932469
C         -13.42968000390272    2.78131251232146   -7.44079083914145
C         -14.65417896286347    2.17347809613986   -7.07129213748989
C         -15.00095409983020    1.91133173970162   -5.75081359712503
S         -15.63374908491892    1.81483628256542   -8.45825817701642
C         -14.40505761027110    2.47692120114404   -9.50372870932743
C         -13.31452796895205    2.94274962567574   -8.84796336383289
Br        -14.67843410147474    2.49174330459902  -11.35840743270858
C         -12.09931790584138    3.16614949507060   -3.91792477511356
O         -10.99781032908166    3.70273913199780   -3.83017193139042
C         -12.92182993178910    2.70009758769787   -2.79920903462553
C         -12.51864257883676    2.83727053773403   -1.49511027186143
N         -11.33606925773043    3.38728804645745   -1.19340495811636
C         -10.83541112518936    3.57560032634554    0.05692230256501
S         -11.69683070434748    2.97521065058393    1.44447474428494
C         -10.41731656735046    3.54240490246877    2.46275278337751
N         -10.53694434090793    3.34199889476755    3.84764950344473
O          -9.63194439152540    3.74267500360769    4.55279994297611
O         -11.54472605482087    2.77979908553142    4.23294427687798
C          -9.40083530309082    4.14414055421807    1.77546683673318
C          -9.62156693604976    4.19054725602206    0.38188659265087
C          -8.64938252961462    4.80783779480609   -0.48591844046503
C          -8.77589060745145    5.23765691779900   -1.75500650262594
C          -7.67542897330234    5.84967094745556   -2.44525079847924
C          -7.68380766482765    6.27343268988314   -3.71866935019263
C          -8.86153967659463    6.17490502529023   -4.63815665536245
C          -6.44946235466147    6.90034199395018   -4.31041806064805
N          -6.76281059151508    8.16728658259822   -4.93076497285004
C          -6.11003247232448    8.67105108137126   -5.97521932497393
C          -6.34250914792228    9.90176425071259   -6.52674589421200
C          -5.56646352343167   10.35426679932580   -7.59343783423484
C          -5.54796471161022   11.53137712196002   -8.28188739485724
C          -4.58702263107097   11.63958788760467   -9.31235330505913
C          -3.77529708168803   10.56084946726711   -9.52442312127457
S          -4.22173479830057    9.34008916765178   -8.26895871784240
O          -3.17504828908478    9.21859638085274   -7.28594800638854
O          -4.71824733249966    8.10954201360583   -8.82235221524126
C          -2.67587751481502   10.30141382266232  -10.33915002232071
C          -2.17653186689251   10.95048246556174  -11.44066750094069
C          -0.75746615238933   10.70373930624526  -11.81167418229367
O          -0.03577201962568    9.83149823090379  -11.38671638864301
C          -0.41001746775686   11.77791040217783  -12.76573620252645
C           0.80140571368563   12.07678655600952  -13.31732597285831
C           0.90482029949254   13.18626146870444  -14.18699933920312
C          -0.25492644900460   13.96589191990310  -14.46438031931944
C          -0.14405397502715   15.07550702425024  -15.32591007864034
C           1.06069254640715   15.39479014746252  -15.88683372094258
C           2.20665931611914   14.62271571280630  -15.61223311276137
C           2.13175245443397   13.54068012993970  -14.78046338682129
F           3.37582036122296   14.96020676242993  -16.17457736545279
F           1.16327102550790   16.45065294668320  -16.70593543595183
C          -1.49877150627754   13.62582665802522  -13.88272941321531
C          -1.57606095831143   12.54317134872834  -13.04888959108828
C          -2.70613692166706   11.95057496432571  -12.33028650372545
C          -4.02736035017565   12.17566199139380  -12.63331567181108
C          -5.09504164694253   11.43075014160534  -12.10130878490912
N          -6.00210172742374   10.84853049888182  -11.70453223376982
C          -4.46734269304473   13.13349909606187  -13.56853212686543
N          -4.88370964745074   13.91122153768060  -14.30365698735065
H         -11.57592812760893    3.60481386912437   -6.68988982159752
H         -15.94514792751959    1.44695443917809   -5.52075696973275
H         -12.46419601997211    3.38213752245903   -9.33653082562611
H         -13.13924020137632    2.51996678770424   -0.66723048357903
H         -10.76480747257101    3.65280257975695   -2.00904315579296
H          -8.53358055506384    4.54869923603676    2.26570510147283
H          -7.69405640511884    4.96630961385180   -0.00026695922621
H          -9.70571928123072    5.17766615679368   -2.29616112968696
H          -6.76491257509953    5.95778610422928   -1.86901715048780
H          -9.59663276784320    6.94739972084014   -4.40809227500136
H          -9.35798129486463    5.21292772628538   -4.53941504910330
H          -8.54835665792978    6.30371858841032   -5.67109849638245
H          -6.02836023968739    6.24313879458536   -5.07888217503800
H          -5.68712934976106    7.03985030705088   -3.53296667517894
H          -7.44634280591399    8.74521792242922   -4.46129098148345
H          -5.34624264663319    8.04169669275969   -6.41065202192748
H          -7.11818327286098   10.54488180884952   -6.12984196821243
H          -6.21287747958758   12.35208275189511   -8.06566606547851
H          -4.47782457969053   12.57151908860501   -9.84561524330383
H          -2.05750197020404    9.47634267190616   -9.99269729277217
H           1.67006112990024   11.47710293035554  -13.09221682988726
H          -1.01220986129086   15.67558673148984  -15.54959506101915
H           3.01816514487578   12.95955908164876  -14.57990632190100
H          -2.35715664736596   14.23899432924326  -14.10578807484537
