122
 SCF done       -221.765537179023          0.000931645622
C         -12.41728298511589    4.22001871427856   -6.13514059954125
C         -11.54322493673862    3.75184951772293   -7.08585420344069
C         -11.84648660270838    2.73032236183053   -8.00732591252689
N         -12.03194982504233    1.89915871357737   -8.77774602413187
C         -10.22603189954546    4.22091783369690   -7.25368061004943
N          -9.14262512209235    4.56472568389773   -7.42296711643707
C         -13.78460672764991    3.75210112209263   -5.92504398807412
C         -14.34739519615531    4.44758735397553   -4.82296180524027
C         -15.62811810261720    4.22342678483819   -4.38065980828031
C         -16.39328031999734    3.26605612236941   -5.05585179870135
C         -15.82478606763348    2.57750144891979   -6.15348291619156
C         -14.52874316592647    2.80519855012103   -6.60195964303069
S         -16.94218121204505    1.43939677644734   -6.84135469681222
C         -18.14166113670347    1.89676147161138   -5.66108587131282
C         -17.72838519042421    2.85316017354874   -4.79569953543362
Br        -19.82395162425692    1.06796949471627   -5.68218807309056
C         -13.34673857082786    5.38482310158473   -4.29380774816606
O         -13.46691214589765    6.15534083330231   -3.34865383924444
C         -12.15859173359211    5.22913623474749   -5.13730425759900
C         -11.02472079881871    5.97809287788156   -4.93685616167138
N         -10.95084936301004    6.85122378996913   -3.92345151578202
C          -9.87233499685337    7.60711240130942   -3.56360907505186
S         -10.16079397650239    9.10889676368016   -2.73872566440209
C          -8.45555558068100    9.41458499321271   -2.74189231426273
N          -7.99900636514509   10.59719927606672   -2.14207368498592
O          -6.80192518977971   10.81009329965889   -2.15300994224576
O          -8.84426458721439   11.32390851106869   -1.65075799732942
C          -7.72178223607151    8.42170306958044   -3.33281597753554
C          -8.51675714012287    7.35679940826609   -3.80249006807877
C          -8.00626038358191    6.13342344855199   -4.37100557051969
C          -6.82765387633630    6.02122623315542   -5.00900475045613
C          -6.31622316368419    4.83432916978624   -5.64777783222904
C          -5.14564795445753    4.92843648202049   -6.37141935056495
C          -4.66736882186408    3.82563746819287   -7.10044380027149
C          -3.55207813423023    3.68653190673521   -7.92426959987997
C          -2.49392217940053    4.71501429789400   -8.12605597120939
C          -1.06422723370148    4.14476720857407   -7.94356374640039
N          -0.50619309700248    3.58611017252304   -9.16756326180620
C          -2.67476137415771    5.44452698573997   -9.47246649215458
N          -1.97894030715110    6.71829102204417   -9.43324694956075
C          -3.62423006696416    2.36213876604347   -8.49290257206316
C          -2.86535086264622    1.75235587150074   -9.42443881755165
C          -3.13212857566549    0.34858524569601   -9.84532916702766
C          -4.32408720081389   -0.28840087804330   -9.19408902931363
C          -5.09230008473659    0.35386984390603   -8.29273229563658
C          -4.79990263951905    1.68592868710280   -7.92598262832311
C          -5.43039741133224    2.58902378288781   -7.08905865266828
C          -6.59700806888565    2.50024191933113   -6.29962105574332
C          -7.01547785965137    3.58525066709242   -5.59885138637336
C          -1.93463113290149   -0.49692189973677   -9.49355232070513
C          -1.60571597307486   -1.64595298907585  -10.10678581070693
C          -0.43829198166470   -2.41990333483786   -9.83245266529744
C           0.74626796364656   -1.93300215538570   -9.35746537196879
C           1.94886652505105   -2.65848479833384   -9.13325557942153
C           3.02100979795308   -1.88825712017743   -8.79768281245972
C           2.73226114544174   -0.50697300305997   -8.74160700265513
S           1.04360995016964   -0.22259564748497   -9.07401379700783
C           3.56292107133299    0.57349768866297   -8.49640460342622
C           4.92057299815260    0.63367791460639   -8.13494809723220
C           5.39641325904337    1.91044602965051   -7.99481944488793
C           4.44345908439027    2.91618495798759   -8.25381850061826
S           2.91002174295128    2.18771980312404   -8.66066938261875
C           4.60654634063500    4.29383497707755   -8.22545841301615
C           3.56320673431020    5.12869914834259   -8.59192889101010
C           3.39765417538176    6.50028683354810   -8.59988369337486
C           2.01845352838649    6.98437572131156   -8.78313910973570
O           1.05978813277971    6.31399622990163   -9.13504145764596
C           2.03237035332853    8.41042009714599   -8.43339299451586
C           0.99045791097860    9.28650929504255   -8.33923015727051
C           1.24959448943769   10.61825774743619   -7.94233599492241
C           2.58780314423099   11.00926790021877   -7.64996149046635
C           2.83991871064737   12.33630294299072   -7.25390311998169
C           1.79897019004184   13.21824901648705   -7.15990924330995
C           0.47636348017321   12.85253503213327   -7.44057870347228
C           0.21390364921866   11.56677703339368   -7.82588334541821
F           2.03991380970778   14.48878895684878   -6.78420878022678
C           3.64680399832273   10.07477670863237   -7.75764850050845
C           3.37477966785307    8.79302911647851   -8.14745289569979
C           4.24752345728613    7.63201368127873   -8.35728015485380
C           5.61856724381653    7.70231431222946   -8.44866455519736
C           6.45883121327979    6.66266918412273   -8.88549467752032
N           7.19943356672680    5.87454664665677   -9.27481136799122
C           6.36638700967656    8.87154631068469   -8.20826079617989
N           7.03928572132249    9.78106126875005   -8.00772745187017
H         -16.02864891157078    4.76799172185096   -3.54006490323993
H         -14.14186477070032    2.25611550306429   -7.44407306961557
H         -18.33862343577883    3.25177574283585   -4.00598282820568
H         -10.17280937516279    5.90817873199897   -5.59777986028841
H         -11.83535517516333    6.96182915433443   -3.40242803708275
H          -6.64921634019725    8.45365896540004   -3.38869982520340
H          -8.64419610268612    5.26928435428497   -4.25700714722957
H          -6.21787567663261    6.90700377243472   -5.13183432658865
H          -4.60911973158345    5.86587723795171   -6.40794090350256
H          -2.62776094383781    5.47662883961158   -7.35166642789014
H          -1.11038405640729    3.35286261180730   -7.19035309885886
H          -0.43210135975824    4.95066074743143   -7.54527455479547
H           0.26208366216848    2.96339128271727   -8.94136230393809
H          -0.11892350301975    4.33966312437299   -9.72744061803220
H          -3.74143501846268    5.65287684483635   -9.61086676259534
H          -2.35284085518359    4.77573139584120  -10.28415756382675
H          -0.97818533919065    6.56973922062879   -9.33079362054226
H          -2.12686906866409    7.22234193051592  -10.30102948174858
H          -1.99828231546062    2.24810533302594   -9.84260635209416
H          -3.26529439419352    0.32277849837612  -10.93632078945139
H          -4.52868583262397   -1.30875681512032   -9.47997444110066
H          -5.94803572744041   -0.13716332225379   -7.85172824501663
H          -7.15040687433815    1.57311007309364   -6.26646109081126
H          -7.90294689073397    3.50882289770827   -4.99093880370657
H          -1.38026048469841   -0.15787594711052   -8.63179650108522
H          -2.25976849114014   -2.04179821947882  -10.87489267756593
H          -0.46383276182628   -3.46712649641235  -10.10383421849505
H           1.98147246147036   -3.72805822492255   -9.24456774370361
H           4.01094942393796   -2.26848621418234   -8.61905408357925
H           5.51089944984143   -0.25260600346828   -7.98383584665524
H           6.40915638385499    2.15598109858764   -7.72907210347678
H           5.56519141720895    4.67476482166066   -7.91454333137649
H           2.64450412371450    4.61521528766121   -8.87312745000055
H          -0.01894759028393    8.96930162047718   -8.55778850318173
H           3.84651347294328   12.65371292131296   -7.03032182646447
H          -0.30426895777893   13.59065082801881   -7.34642076751316
H          -0.79715130903623   11.25915348828401   -8.04685650408695
H           4.64563202795731   10.40222461569856   -7.51821841060059
