121
 SCF done       -212.068406969710          0.000799520012
C          -2.37976134367462   -1.62685888202163   -1.30710349316181
C          -1.88827842608113   -1.88109921554637   -0.05220142211430
C          -1.04412683537434   -2.96750375399979    0.25941712050148
N          -0.34913211540241   -3.82482278732218    0.57648906567359
C          -2.16266944554969   -1.13515881088009    1.11387332222777
N          -2.34365693668125   -0.60773848012422    2.11852781518121
C          -2.15621767610773   -2.46439699374137   -2.47836271553033
C          -2.93004382664552   -1.95697414552853   -3.54807873133467
C          -2.94402961086279   -2.53359923005820   -4.79460430944380
C          -2.15506774264068   -3.67061381845939   -4.99543164972483
C          -1.37983678249133   -4.16920172946323   -3.92163494061686
C          -1.36528112858731   -3.58422933700272   -2.66188108306897
S          -0.47461285639958   -5.57809058078535   -4.38759929972256
C          -1.14378410685194   -5.48035183421491   -5.99483864318800
C          -1.99943319696769   -4.44693954607861   -6.17652731968494
Br         -0.64821628534049   -6.75162210649392   -7.28200925670097
C          -3.67323198613791   -0.75968029357672   -3.10298795049515
O          -4.40385227496641   -0.09082191277401   -3.80158690308119
C          -3.27252669687282   -0.54239357435881   -1.69054546828935
C          -3.51223803887739    0.54827746347224   -0.90529881658871
C          -4.41799079173260    1.64598992768138   -1.05055540382687
C          -4.14377983717675    2.80493642954878   -0.29203895423913
C          -4.98059759973013    3.88510729443982   -0.36978706643215
C          -6.13512108183766    3.83521744532162   -1.17614436419998
C          -6.44079567793461    2.68431989487073   -1.89311351051338
C          -5.58693793860377    1.60481535616649   -1.82938433249844
C          -6.81659017641399    5.10171547364267   -1.07809778561815
C          -6.09164358165219    5.93955108559794   -0.20735759774305
C          -4.89705789417143    5.20796962738526    0.36180375231564
C          -5.07160590013276    4.90341505977446    1.86941015261326
C          -5.22208036864353    6.11408537400551    2.78100846531426
C          -3.57747175685977    5.94224730241297    0.08183879025563
C          -3.33485880233814    6.15104117507687   -1.40880417759086
C          -6.49239420424572    7.23473843432697    0.00391067383249
C          -7.66062470162070    7.71534692344770   -0.61378085444486
C          -8.37686630748447    6.85847436343626   -1.46699909127461
C          -7.96481551932260    5.56660004597396   -1.70875032682085
C          -8.16154260350789    9.04693448189590   -0.40030965709324
C          -7.66885720571096    9.93700177535398    0.49116774038050
C          -8.18583780380732   11.24068014862355    0.74480995800293
C          -7.57929450855419   12.03811811181297    1.73903971584519
C          -8.06333549849370   13.35740855985070    2.08463211717625
N          -7.37876211806362   14.10873619794775    2.93441225568241
C          -6.28292708495883   13.63797797264408    3.50583149321998
C          -5.88918254331518   12.28595691315786    3.27173422812761
N          -6.52129342783110   11.53531761576096    2.40478625293101
C          -4.80654395433878   11.76755552094171    4.02309258092636
N          -3.93598622556434   11.42373429352975    4.68557408137814
C          -5.49677532782133   14.46540608199608    4.32451810504960
N          -4.77914811025567   15.08664853124028    4.97180929778286
C          -9.24510745293034   13.90416503664937    1.50688900777148
C          -9.80970151580791   13.12031641832705    0.45714497649575
C          -9.29627939500488   11.82533745130398    0.08298622540350
N         -10.00196375870287   11.29192861508719   -0.91223848358416
S         -11.18275509919368   12.30651064889822   -1.33414487334366
N         -10.86196034446396   13.47382056162776   -0.27008182542773
C          -9.88035003531437   15.08857790648066    1.88359041851045
C          -9.68867808292092   15.93152686101891    2.96759501395336
C         -10.57136741417407   16.99457880940022    3.26962312541152
C         -10.33434902136143   17.61367255513917    4.46552460158281
C          -9.23927244283061   17.06768469949073    5.15432901669792
S          -8.47788213315994   15.79844278255731    4.21418913119068
C          -8.74821223785861   17.37949760989704    6.41470212838378
C          -9.19942178094914   18.35938518074555    7.32629755411867
C          -8.52438342130973   18.36098234612772    8.50927041762189
C          -7.49600345560188   17.38552127839746    8.59441849007468
S          -7.42146425742549   16.47416937761408    7.08961857872189
C          -6.72834384022338   17.08896696689056    9.68307445408935
C          -5.72584485749159   16.05780562285152    9.71896270409351
C          -5.71186375390582   15.15838555996694   10.78988852488795
C          -4.91287278390247   14.02281682597902   10.74848407547013
S          -5.08148690661940   12.97441619283584   12.14126359503774
C          -6.03274693249038   14.26237901069549   13.03527083789628
C          -6.61594185330332   15.20820908490968   11.98947096417766
C          -4.11055024818778   13.77581688992059    9.64285957134434
C          -4.03722828494552   14.71866308105968    8.61269739714364
C          -3.01801538470014   14.37687156155503    7.56676988476667
C          -2.69759766651553   12.89082886476425    7.69530857710386
S          -3.09718498127073   12.38293412406257    9.41145862649376
C          -4.80428078091006   15.87165497679015    8.65138269356817
C          -4.55456710045671   16.92991524240174    7.67168117401030
C          -4.46384258984068   18.21491332972429    7.98504603129570
H          -3.54659301849606   -2.12086176430966   -5.58854204775923
H          -0.75334387176069   -3.99997015279696   -1.87920813311106
H          -2.50088766623177   -4.23840876354775   -7.10393692429219
H          -2.89820727264813    0.62388868577119   -0.01428548028827
H          -3.25994025331107    2.83133407608803    0.32947321015894
H          -7.33762554262377    2.63247366966411   -2.49160375433746
H          -5.82956722033956    0.70879103563510   -2.37340468088757
H          -4.20582372351297    4.32047888782369    2.19109870155016
H          -5.95510482202056    4.26918136761020    1.98278265726151
H          -4.37722161582725    6.79135407130072    2.68907468923282
H          -5.27072370561854    5.77883529526063    3.81481289884063
H          -6.13749269644887    6.65640093413018    2.56052262433047
H          -2.75515290147773    5.36358918431341    0.50781525816121
H          -3.59610848388999    6.91323525657903    0.57786669973943
H          -3.28639689726730    5.19745419855327   -1.93038753658783
H          -2.39569640258110    6.67679102060441   -1.56549657614128
H          -4.13652023295676    6.74071403565017   -1.84848084375242
H          -5.90755197399169    7.89279032111618    0.62548011499233
H          -9.27074730756326    7.23420315905408   -1.94389415275561
H          -8.51972831519016    4.92774279187035   -2.37955694930494
H          -9.02026291222401    9.33426470369173   -0.99067487240501
H          -6.82263535796541    9.68281269314818    1.11326133927618
H         -10.72811849033478   15.34238402477448    1.25693787062631
H         -11.37753447169671   17.25397133495258    2.60558401377517
H         -10.92809260821179   18.42123388665583    4.85631567253460
H         -10.01021472691529   19.02469573629919    7.08875267185026
H          -8.73068925419678   19.02880414688775    9.32725109868380
H          -6.97629153115115   17.58898503603871   10.61098006325524
H          -5.33086238134781   14.77691212132057   13.69273546846313
H          -6.79187226822361   13.76871663421330   13.63698089717268
H          -6.69634801859470   16.21664023665303   12.39835054564393
H          -7.61895025039298   14.88372167215046   11.69398703795927
H          -2.12177716488419   14.98272207786184    7.73138086914074
H          -3.39401841794964   14.59229221513658    6.56608755914624
H          -1.65030118593194   12.66143159789296    7.51482727579901
H          -3.31274432661786   12.28546583287613    7.02876560125061
H          -4.37999393317083   16.60435104115565    6.65703812832021
H          -4.59265115474136   18.56952252966268    8.99553986039607
H          -4.24227194234583   18.96102184712093    7.24167465049086
