120
 SCF done       -212.733079245724          0.000226297537
C          -4.65726824253373   -3.13710129291996   -1.54807042129276
C          -5.36850129393993   -4.06026443342104   -2.26853073635081
C          -5.04573623042458   -5.43224391755859   -2.33067675322011
N          -4.83597968025721   -6.55775904794487   -2.41347321567337
C          -6.49391913010273   -3.77445887853336   -3.07070092651566
N          -7.40241627372691   -3.62335984868485   -3.75675574035971
C          -3.44077513862499   -3.40354213735160   -0.79387313860581
C          -2.92310717521081   -2.17391600479698   -0.32023052500501
C          -1.77316659329376   -2.09231641579613    0.42714458165980
C          -1.10033723475717   -3.28249416325130    0.72090743518783
C          -1.62739578674022   -4.50821283980742    0.24700967942777
C          -2.79020435774558   -4.59035242302845   -0.50801614415099
S          -0.64354224035149   -5.85623167775958    0.73088352805093
C           0.44832090885505   -4.77044366412682    1.54931437356001
C           0.09617629197369   -3.46535597498786    1.46651383926949
Br          1.94801986781532   -5.46259904110614    2.43738413038007
C          -3.79994071956123   -1.06434147843287   -0.74667201745605
O          -3.64230873431642    0.10651010171793   -0.48142467817091
C          -4.92724325895960   -1.70860832176775   -1.47372031483289
C          -6.10674325252634   -1.12130954192889   -1.81082870281483
C          -6.43084198279488    0.27754951157055   -1.85328902481365
C          -7.75944956483727    0.65532589282686   -1.58132136389401
C          -8.10405646602210    1.98119608159418   -1.60897966949046
C          -7.14922647271628    2.95926973255580   -1.94978842313918
C          -5.84892801353817    2.59153583873017   -2.27101558558953
C          -5.49728819049929    1.25935365178937   -2.21615817961623
C          -7.78497326710636    4.25437443330933   -1.90663288968564
C          -9.13242217320600    4.08256098309925   -1.53709404652359
C          -9.44303058929346    2.61968708207531   -1.32343671114810
C         -10.52134190315115    2.12523974427635   -2.30628127000737
C         -10.14250551126054    2.35065824821346   -3.76505907306291
C          -9.89706212858662    2.34641856511125    0.12277830727573
C          -8.88449860281704    2.81634270304862    1.16037406263232
C          -9.96323391935752    5.16586433989062   -1.41312342546055
C          -9.47008464254690    6.46286735324653   -1.65534829885990
C          -8.12283651770639    6.61177148591433   -2.03174068082091
C          -7.28433928974873    5.52668093302168   -2.15713746335646
C         -10.36103684847756    7.57396333116952   -1.49793501852036
C         -10.05894412863361    8.88947867260164   -1.67449748076590
C         -10.97720908513557    9.93427129618492   -1.48379919512485
C         -10.66565136368507   11.26208195085356   -1.65402874716915
C         -11.51381932645419   12.37912619262400   -1.47352224642859
C         -10.91370905379191   13.58128818172328   -1.71310725247820
C          -9.56170346675716   13.47769757561453   -2.09851278516623
S          -9.06819533014317   11.80688739127286   -2.14579733571068
C          -8.66642606493406   14.48955733513999   -2.41605255014707
C          -8.87996447322036   15.87793555115763   -2.41993667137257
C          -7.76711843306151   16.58205690203983   -2.78399142861959
C          -6.63760533078675   15.78684490106502   -3.08354859369037
S          -7.02419748068828   14.09976515749299   -2.89753514486906
C          -5.41642106912942   16.33041044319793   -3.45859511859653
C          -4.23637797069091   15.68476219757145   -3.78220703110033
C          -3.93687639951194   14.30117021307715   -3.84660426926823
C          -2.58790447418836   14.02788931539438   -4.20470441578035
N          -2.13946765531252   12.76753179773998   -4.28794699021868
C          -3.01637887845488   11.82402370501785   -4.04618313257068
C          -4.36481374379333   12.07899196062109   -3.71433017588213
C          -5.33579222618553   10.97822644160781   -3.42606433746507
C          -5.41051930154259   10.71958676128472   -1.91969137171560
N          -4.80091887602231   13.31968790430925   -3.60769536153578
C          -1.82352956208262   15.18542231960730   -4.46858232224150
S          -2.81409909754041   16.60178248068317   -4.20178145571735
C          -0.46809852397796   15.18269152870356   -4.78039663883753
C           0.35146427219843   16.21874383963846   -5.16646220006332
C           0.06406298951173   17.50724520843273   -5.73254462557576
C          -1.00082530728346   17.81858426673352   -6.54766853896881
C          -1.20509648880098   19.08422806288180   -7.12492126380957
N          -1.42775370378438   20.10766980442506   -7.59745540191575
C          -1.93638695957739   16.86233332912033   -6.98566451592824
N          -2.68096131609818   16.09759703789214   -7.41139294902244
C           1.24941243155882   18.34227887243584   -5.54846078966022
C           2.30900463134828   17.51919867207080   -5.09276684419018
C           1.80495494919266   16.13903137470610   -4.90456339296303
O           2.43923534846362   15.16493484431161   -4.56163990048987
C           3.57404985213330   18.00381596549584   -4.87246029882497
C           3.80004308696597   19.36661558009481   -5.09996973813666
C           2.73136364286560   20.18072043770167   -5.54020084733469
C           1.45204286067936   19.68849887224265   -5.77438717032038
S           3.22957092002002   21.83298985314073   -5.74741852646521
C           4.84718145258995   21.41077892161195   -5.25137580093759
C           5.00748239531162   20.10255760272336   -4.94406451976113
Br          6.17079727395009   22.73903007924461   -5.18455068411191
H          -1.40428233688888   -1.13933353261163    0.77279246943389
H          -3.15481533445309   -5.54786807826456   -0.84032236024189
H           0.65532848975799   -2.66346768171138    1.91292206674233
H          -6.93782205057378   -1.77810394456800   -2.04302435097731
H          -8.48437487616901   -0.10449829680505   -1.32638627036602
H          -5.12205690856218    3.33477353594109   -2.56053643369860
H          -4.49842609315328    0.96257522566399   -2.48852956577183
H         -11.45601670504823    2.64666260781975   -2.08949166862316
H         -10.68671385736927    1.05958535028490   -2.13609510811621
H          -9.98873253937007    3.40899007063227   -3.96477734872945
H         -10.93512685977692    1.98934701199949   -4.41574136902338
H          -9.22693684796226    1.81799944771533   -4.01212532061108
H         -10.06434345328564    1.27368622887537    0.23898396197452
H         -10.85019386857069    2.85213260658502    0.29110295492554
H          -7.92972521937782    2.31345167338629    1.02329103421508
H          -9.24746138191346    2.59729599223817    2.16182307669997
H          -8.72092766951357    3.88890598903876    1.08102433871941
H         -10.99784780819379    5.04014035537161   -1.12692728823503
H          -7.73346406228484    7.59841341420662   -2.22758330542261
H          -6.25251514871304    5.66309003472094   -2.44392986608576
H         -11.37278902726172    7.32520252131819   -1.20000733603446
H          -9.06263984516682    9.18413740352878   -1.97483328879997
H         -11.98702335150528    9.69072281159802   -1.18056614610415
H         -12.53968701001272   12.26095044942484   -1.17199394171661
H         -11.40675491258691   14.53266847635500   -1.62478453803683
H          -9.82178569678613   16.32748831165017   -2.15997700528185
H          -7.72463084101841   17.65545306616159   -2.84649494266905
H          -5.38775095614628   17.41274131839140   -3.50283829948918
H          -2.64962603455682   10.80861515310245   -4.11446939449680
H          -5.02540965487418   10.06971019033379   -3.94465885076584
H          -6.32178138571554   11.27942059854260   -3.78230551503720
H          -4.43673349996817   10.42989014922970   -1.53078530222634
H          -6.11925890994744    9.92302854722467   -1.70917934978545
H          -5.73908188069668   11.61968296987573   -1.40703499396334
H           0.02727740233552   14.23271084939818   -4.60207100838726
H           4.36725410809196   17.35441046176854   -4.53671703526005
H           0.66577135668149   20.34545114696477   -6.10811506523271
H           5.93716802928654   19.67116784055689   -4.62051307197345
