89
 SCF done       -194.351720944580          0.000973670550
C          -5.30828196739372    5.48367051181824   -1.53919134554531
C          -5.14996787553255    5.65806714440733   -2.89137648515307
C          -4.86536915252072    6.89783530031058   -3.49790980794827
N          -4.63574548085216    7.88138974892302   -4.04423843700459
C          -5.31718873047775    4.64383676377481   -3.85626748200691
N          -5.47639841373723    3.88057225247409   -4.69937318304348
C          -5.30034364294711    6.54875901342237   -0.54169416715348
C          -5.69012392794338    6.00271678138958    0.70599665152263
C          -5.80657488184126    6.76402652682835    1.84346118553474
C          -5.50577373733928    8.12729108247434    1.75022600956495
C          -5.11552033820847    8.66246336850492    0.50047229188992
C          -5.01587675268015    7.89559501988614   -0.65467127234458
S          -4.74960891958971   10.35625114064662    0.61572772255837
C          -5.09751353239570   10.31848052792568    2.32397595803361
C          -5.49387644067627    9.10683880386322    2.78029382889744
Br         -4.87938229058661   11.87877793647193    3.34279215275575
C          -5.95206091314911    4.56071511929862    0.54652120621495
O          -6.29006288070846    3.78293473013067    1.41709220644799
C          -5.66813278140777    4.25255370789748   -0.87134479931930
C          -5.64716673200113    3.00250799509583   -1.43196968444321
C          -6.16148114937796    1.76995233331700   -0.93284801548426
C          -7.30084974941378    1.58259071466697   -0.17999168304981
O          -7.67589913437949    0.37967137882330    0.32080800133829
C          -6.86892603130451   -0.67577851802137   -0.00160518752687
C          -5.74835019343425   -0.51711220575728   -0.86677714551539
C          -5.09618071495941   -1.68268629805396   -1.09723117227361
S          -5.84225685717201   -2.99139840708726   -0.25614297672333
C          -7.04434400054785   -1.95660971292120    0.41035623755605
O          -5.39382129953733    0.70054585674306   -1.36750293814345
C          -8.17934353444095    2.66767916588379    0.17474552162110
C          -8.46496499307096    3.67309071067888   -0.67923139718420
C          -8.89699102028778    4.97218546494473   -0.29867744694875
S          -8.58398482931233    6.27033689403786   -1.42952228681897
C          -9.01302234477187    7.47430876978514   -0.25594778075322
C          -9.34731739041800    6.88768085276406    0.95121245848950
C          -9.31732569063672    5.47972143417045    0.91942950184866
S          -9.95430956910878    4.46164675108675    2.19622524306778
C         -11.26816456787295    5.52937440086191    2.84757878091647
O         -12.32433198233398    5.05494273402892    3.11159223677303
C         -10.84890398251481    6.91438453049983    3.29097641592095
O         -11.26919539298388    7.35436119362064    4.32358852243824
S          -9.67829291298266    7.86132261040754    2.36980628333532
C          -8.89985344956291    8.88846427667444   -0.48025749985393
C          -9.31091879454202    9.57294790299497   -1.60048921228083
O          -8.96418515492637   10.89786833698776   -1.79516587694560
C          -8.54372764958759   11.56009934257076   -0.67745840727475
C          -8.29258391137130   10.87347847961493    0.54247374499948
C          -7.97660628474055   11.70554821626284    1.56615235221615
S          -7.93574797498601   13.34239738751980    1.04120583894834
C          -8.38144261880288   12.90181866932128   -0.56436028645979
O          -8.33538872802531    9.50555090647494    0.60721113514726
C         -10.20780634052633    9.11175716561763   -2.60419496925988
C         -11.01574648623257    8.01847516579872   -2.53263680688873
C         -11.97399405325229    7.71024469118201   -3.51214635984142
C         -12.77497631892334    6.60307676023749   -3.60567370792824
C         -12.87227005671438    5.37360932763938   -2.85552381045328
C         -12.48761255706984    5.10268351937272   -1.56004870129435
C         -12.38003598137752    3.80220047811721   -1.01893045298006
N         -12.17175789537314    2.78586352775638   -0.52713151318710
C         -12.17873103192884    6.01059761665096   -0.53798323055002
N         -11.95786442270443    6.62880802595352    0.40923351185638
C         -13.56808966881882    4.40324704290545   -3.70197390931018
C         -14.04335157853295    5.05779165309392   -4.86616266067526
C         -13.58732839842575    6.45762330316554   -4.84759899157398
O         -13.79348157083330    7.31769696673290   -5.67250990131052
C         -14.80272425922029    4.42526676599693   -5.81922546947390
C         -15.10544875024085    3.07383462429855   -5.62147536823128
C         -14.61901867510991    2.42305829602346   -4.46226105577836
C         -13.85629270901448    3.06644359704446   -3.49532421432070
S         -15.10893061659587    0.75726796742215   -4.41285540806354
C         -15.95252363806464    0.95558738486665   -5.92587521376441
C         -15.87043786681225    2.20449182404521   -6.44478947323417
Br        -16.86162179465776   -0.50153044588641   -6.67628677581898
H          -6.10949235233608    6.32045194113970    2.77886666688003
H          -4.70983496908143    8.34912016978008   -1.58259756704015
H          -5.75118857310027    8.90519516225289    3.80394732603103
H          -5.07937115743602    2.86721257601907   -2.34624937320626
H          -4.23170044445045   -1.84559806578562   -1.70583703241875
H          -7.80430087236335   -2.34103169168426    1.05800148355342
H          -8.56567061254913    2.64716448823827    1.18256630088872
H          -8.16848465084167    3.58459523950412   -1.71694219340219
H          -7.78170988525715   11.44905984258315    2.58615750647468
H          -8.49563695799110   13.64539911777632   -1.32486530967182
H         -10.31553803162212    9.79426857399101   -3.43746923024686
H         -10.95023834585462    7.37357120735352   -1.67625514907727
H         -12.08279438676591    8.40738446700758   -4.33723565315170
H         -15.15645832697847    4.95799014903284   -6.68780813481347
H         -13.51567686539315    2.52239330729213   -2.63042281071810
H         -16.33104759830563    2.50161060848834   -7.36912785910060
