115
 SCF done       -217.815583556998          0.000700802419
C          -7.74338171304878    5.92563880975580   -7.59330992140306
C          -8.36963785202930    7.12218523776684   -7.83291127908743
C          -7.85366084060785    8.14061091240096   -8.66108545813759
N          -7.50823783375008    9.01677599993675   -9.31799299614807
C          -9.59960280460285    7.53089864461965   -7.28009129009540
N         -10.58401202750575    7.93847536110587   -6.84934013285644
C          -6.41837292863731    5.56885756242996   -8.07282979867286
C          -6.05862768126826    4.30264567400086   -7.54379172951763
C          -4.81094952302216    3.75889205442467   -7.72914549516861
C          -3.87446601847546    4.49724267054255   -8.46434452630653
C          -4.26503912754003    5.73358305928085   -9.03788211360389
C          -5.52791209959428    6.27913131097392   -8.85764889453805
S          -2.97129026731853    6.46862210232934   -9.92315913072531
C          -1.92416934187869    5.14995769475803   -9.49567283573942
C          -2.51747586452203    4.18961583950998   -8.74287384405854
Br         -0.15437774210486    5.14755907073386  -10.08828683723640
C          -7.20705624821861    3.74983346824579   -6.79871066403894
O          -7.35407952649543    2.60695467259516   -6.41167489251162
C          -8.20391306818155    4.84004993394680   -6.74166965163501
C          -9.39303785482058    4.82609171356534   -6.07110413089446
N          -9.82375444980390    4.00024946897050   -5.09058674242998
C          -9.20313831722982    3.07006532610279   -4.29527806462998
S         -10.23197262465313    1.76864361031431   -3.75808835581840
C          -8.90274901676445    1.06057136624915   -2.91302087362396
N          -9.12036897126132   -0.13112832156263   -2.19947094814649
O          -8.17334757698148   -0.61258451013540   -1.61125105476765
O         -10.24846820295388   -0.58507880371959   -2.22542200123127
C          -7.75037266005954    1.78010827600826   -3.03757076333684
C          -7.90185524891011    2.96174988567032   -3.79982803716070
C          -6.77351117525043    3.83258881682135   -3.99947057802015
C          -6.80256036892887    5.14494597919566   -4.30570971220420
C          -5.68806035504676    5.90851452412303   -4.77472139797227
O          -5.96647873583099    7.09234537602336   -5.38963479469762
C          -4.86823265164236    7.53507311465681   -6.03492093549247
C          -3.80862281225293    6.64581820557982   -5.80822993213864
C          -4.35180892424814    5.62252040051296   -4.97878261028097
O          -3.63059485964371    4.57846660379127   -4.49072480855723
C          -2.44227222658032    6.62536379702842   -6.35591292148919
O          -2.05202406365392    7.34390518024432   -7.24402744271244
O          -1.61915028027219    5.70581516130051   -5.84593916296903
C          -5.07646946371806    8.73095580132010   -6.78075009717778
C          -4.23892735580072    9.27355380623331   -7.68883518313414
C          -4.51199520232562   10.42157713572488   -8.51282875863389
C          -5.59615591509921   11.28793373519403   -8.29838215761172
C          -5.77932228193878   12.35951984136073   -9.13694883296960
C          -4.89842767020617   12.58804563468715  -10.20919693516271
C          -3.82427859895317   11.73706639734787  -10.43563588494222
C          -3.63687236520739   10.67151911802179   -9.58269302304590
C          -5.33101948826807   13.77111001084230  -10.91542773284735
C          -6.47509666009619   14.28493860755562  -10.27654065042495
C          -6.81497614892097   13.46197192237510   -9.05525170025702
C          -8.25255333812656   12.92398973990897   -9.09858613892983
C          -8.51761989128457   12.07347424048368  -10.33519894322136
C          -6.53551429795965   14.24144390249978   -7.74656612735245
C          -7.29686031290560   15.54905689504388   -7.57308007144237
C          -7.11466250803326   15.38322579322135  -10.79573195368871
C          -6.59663273290738   16.02569534218836  -11.93470172698751
C          -5.44255610658036   15.50936370054076  -12.54360879384487
C          -4.81566030327126   14.38707373330318  -12.04915151996440
C          -7.23808037937933   17.22986990651320  -12.38477341356838
C          -6.92707016693713   17.95691448961320  -13.48440218336975
C          -7.56553803226954   19.16255720572491  -13.87222656148177
C          -8.23654448985736   20.09632971916960  -13.13850110777888
C          -8.36720553175039   20.36213956126730  -11.72131509524739
C          -7.47300239751583   20.05243448948334  -10.72807108479263
C          -7.64250382090267   20.40461535797116   -9.37384778166087
N          -7.73718476315412   20.63657595126233   -8.25312307898560
C          -6.23822818113830   19.40679927868974  -10.93459731991836
N          -5.20423322449073   18.91802541314652  -11.03276319639762
C          -9.50797339258313   21.25997395912774  -11.55048423441441
C          -9.92369556268011   21.71831942888292  -12.82514486094036
C          -9.10355459672503   21.06478845844308  -13.86368629814898
O          -9.14545150176429   21.24273069501673  -15.06004307578898
C         -10.94198931851580   22.62551831506116  -12.98889343995181
C         -11.58863414873283   23.09488108418780  -11.84076530140588
C         -11.18070936405707   22.61484173182101  -10.57351086769515
C         -10.14616252973700   21.70232110650760  -10.40729872686322
S         -12.12028913102391   23.31687864016579   -9.29142188923814
C         -13.03030937249414   24.23931982567278  -10.45846130579831
C         -12.65469551571444   24.03087151259248  -11.74246938994560
Br        -14.38997045721404   25.38972662780925   -9.87033073529462
H          -4.55430507916932    2.79990576395563   -7.30660927394323
H          -5.77371817494067    7.22635667730690   -9.30590050056608
H          -2.01249555156369    3.30841037179035   -8.39156771754092
H         -10.12370926493224    5.58797058849252   -6.31142681393257
H         -10.82995362479319    4.00677594211809   -4.96300683899241
H          -6.82930106343982    1.47622867950460   -2.57298047702461
H          -5.83470270245155    3.29846163476128   -3.95721555703869
H          -7.73238745418470    5.69313308507667   -4.28303724039184
H          -4.15396763287105    4.07543621330384   -3.85660183915194
H          -2.04622013010043    5.14820268337882   -5.17478304997841
H          -6.05482614468377    9.15967548782144   -6.60683642981915
H          -3.28473901115683    8.79652557495931   -7.85523764826023
H          -6.26771840456386   11.12054950314513   -7.47123791091590
H          -3.14495995367569   11.91202069676527  -11.25602803779386
H          -2.80399069502868   10.00060218840418   -9.73416504764645
H          -8.94802293406815   13.76458194142864   -9.08397490377109
H          -8.43219646121672   12.32417427866863   -8.20421154742273
H          -8.32950367120494   12.64349777112203  -11.24279410508029
H          -9.55407663902528   11.74360435186607  -10.34425024577109
H          -7.88023660681490   11.19395281609778  -10.33740516447873
H          -5.46444691851307   14.45609775975953   -7.70530741443093
H          -6.77112674060830   13.57718571524594   -6.91214484320657
H          -6.98704876663218   16.28077024832857   -8.31453197938844
H          -7.08283458896424   15.96095141282465   -6.58932497825492
H          -8.37077466994089   15.39834980721221   -7.64677203555679
H          -8.01744097720405   15.76708669626491  -10.34387877223285
H          -5.03169733385777   16.00272970977369  -13.40968221803735
H          -3.93428696428234   13.99456149032035  -12.53322877043971
H          -8.06908974826437   17.56269795298670  -11.77283363376639
H          -6.18940703751389   17.58299949101132  -14.18026825677841
H          -7.56575151302869   19.37216235344921  -14.93899836385223
H         -11.22864625379128   22.96570403984141  -13.97153273110791
H          -9.87452649874088   21.36352643519819   -9.42136273289824
H         -13.10812038255084   24.51683727166294  -12.58695898024629
