117
 SCF done       -220.257317618116          0.000929427257
C           1.17423304721693    1.05451585091740   -2.04779143620967
C           1.45008843569107    1.27371497814373   -3.37215954172821
C           2.38526356106294    0.52585563560320   -4.11783822137197
N           3.12983536640419   -0.04852345273171   -4.77622888807950
C           0.87792061850553    2.28748780709694   -4.16998180735045
N           0.47485543276934    3.09311534692839   -4.88257344552198
C           1.83476234726261    0.07327011693067   -1.19833949489715
C           1.39137122700950    0.25724668866806    0.13308935118650
C           1.83772471879205   -0.51612321552936    1.17701584639138
C           2.77000259231218   -1.51922736983982    0.89330476361694
C           3.20450396375475   -1.69947959090789   -0.44190156197044
C           2.75102288841919   -0.91884264914780   -1.49729387167900
S           4.35199717739732   -2.99822061287098   -0.57071814242072
C           4.23749220545235   -3.27431339622516    1.14725064099796
C           3.38361734050764   -2.43993614030646    1.78624956642382
Br          5.25504834790655   -4.63912026890020    1.93424218563250
C           0.41620548890726    1.36617715014187    0.18690025816819
O          -0.15753664714052    1.75451477393339    1.18022899254695
C           0.24847164733138    1.81462605986403   -1.22068377693964
C          -0.72983073372051    2.62673308424138   -1.70790649974641
C          -1.62776390610131    3.50039717400810   -1.00930170209128
C          -2.86843717016474    3.78102309189637   -1.61535703960009
C          -3.74534165683401    4.63668222088410   -1.00277673277926
C          -3.39930328423446    5.26086381694113    0.21174090619358
C          -2.16610451474769    5.01556251737634    0.80292589865009
C          -1.29285459674969    4.13933336582020    0.19454569286914
C          -4.47239494623094    6.14826426802538    0.59025384494422
C          -5.48532833561983    6.07327780505574   -0.38626153798972
C          -5.13706194643946    5.04415322472013   -1.43613016860534
C          -5.16029461490395    5.62959840448241   -2.85562400107824
C          -4.19884447304462    6.80151465208031   -3.01798202731120
C          -6.03275130891439    3.78641872482143   -1.32369459032204
C          -7.52502927922696    4.01675028811632   -1.52113083948158
C          -6.57384186419203    6.90461635856836   -0.31281610593675
C          -6.69733107925314    7.81034760921041    0.75847330717601
C          -5.69818438356311    7.83765644675935    1.74620769699402
C          -4.59070204587939    7.02288050365331    1.66493897323444
C          -7.83768386251575    8.67738372157196    0.76575628755384
C          -8.15050437753136    9.64097287793628    1.67076785396725
C          -9.29427451740101   10.45622276261515    1.53695629152964
S         -10.36175162795839   10.28798719465773    0.18366914224953
C         -11.39721714396773   11.59400988981468    0.69499678462852
C         -10.96596358293446   12.07758749820409    1.95648106790367
C          -9.77118805513626   11.44317803179081    2.41660515218514
C          -9.21326976712987   11.81210939292177    3.64927197011376
C          -9.83209397963778   12.75859890651951    4.42089723719938
C          -9.25571531811853   13.17944229839917    5.74122235903648
F          -8.10178034766233   12.54760429618335    6.02087260167934
F          -8.97801121223898   14.49264346628757    5.79300232108006
F         -10.07518493976868   12.92211424514834    6.77439516788722
C         -11.05092148309530   13.35972867161166    4.00120705475322
O         -11.58008212780601   14.25391100818321    4.86087781260779
C         -12.77310878938692   14.91425785816577    4.50603355004974
C         -11.60311044326285   13.00728250539127    2.78861261166879
C         -12.45447463468480   11.98147505648828   -0.16570704380123
C         -12.82773839634357   11.11062207702144   -1.23041249177585
C         -13.90454546981511   11.37281379248595   -2.14888534324713
N         -14.21565685584646   10.46879743613906   -3.07892249824583
C         -13.51375751709349    9.35803178681952   -3.18229218376460
C         -12.40824837765626    9.11962083273766   -2.31700105807885
N         -12.12142219150985    9.99019017682801   -1.37439640513205
C         -11.58592498825263    7.97550170752041   -2.44507213235887
N         -10.91330560541456    7.05474220913066   -2.56287404857705
C         -13.86892804015798    8.40914996276266   -4.17026179667219
N         -14.13277252240870    7.62022559851590   -4.95872492494218
C         -14.63930758433354   12.59596419507610   -2.11620161741310
C         -14.21436289223903   13.50723352392563   -1.11491528256780
C         -13.16674408219816   13.21387587943406   -0.15738626943723
N         -12.94836629393183   14.25499094816964    0.64053226349470
S         -13.94116981978509   15.46526833148315    0.25951221581974
N         -14.70652359903862   14.72554525940233   -0.94940122695819
C         -15.65286835492222   12.79010985557608   -3.06097289575561
C         -16.47200426240618   13.86192493744349   -3.34996545736473
C         -17.43207115357014   13.80834188138620   -4.39286893741872
C         -18.13163943110949   14.96008622294614   -4.58437460168829
C         -17.75635104228882   15.99048527569117   -3.69534896974648
S         -16.50171345237921   15.44032317521322   -2.60131331141557
C         -18.25275514120506   17.27857524875852   -3.64359499481556
C         -19.25416295382999   17.85029922901865   -4.47385764788471
C         -19.52971095679929   19.14711697523139   -4.20296376456031
C         -18.75854962697609   19.70070212481009   -3.12897246685097
S         -17.67098670580468   18.45542802808552   -2.49151158068172
C         -18.80610781106154   20.94942663340226   -2.64205983427822
H           1.48122820045538   -0.34926798907216    2.18129998937310
H           3.10675121934658   -1.09985828162164   -2.49769805706362
H           3.19211659549031   -2.47129439336652    2.84322649723138
H          -0.89079351730426    2.60187715589167   -2.78020217895367
H          -3.11779517782934    3.30548874492072   -2.55309447268681
H          -1.88883462782923    5.50923192306623    1.72172217975124
H          -0.32395886478662    3.96874702723114    0.63185411003526
H          -6.17184909284820    5.96494684701381   -3.08566647351796
H          -4.89750174845714    4.84313890711856   -3.56573269311923
H          -4.44884261691527    7.60215283765438   -2.32490399471428
H          -4.25596086822142    7.19348554825141   -4.03059605825955
H          -3.17371647053220    6.49107833804939   -2.82786222750367
H          -5.87297278704907    3.34849368465102   -0.33443867293641
H          -5.68071239066056    3.06396561665011   -2.06360371661756
H          -7.92785531452400    4.65654972179812   -0.74114371110072
H          -8.04336652123959    3.06156865345206   -1.47330773189757
H          -7.73723306483646    4.46412837311905   -2.48790906792413
H          -7.33717653861677    6.89541165075512   -1.07623253317252
H          -5.79060946100482    8.51973282544384    2.57691023827105
H          -3.81974671859286    7.07015868261383    2.41929204491243
H          -8.52156118685349    8.54039068238312   -0.06397581812056
H          -7.51886560832025    9.82046919009029    2.52870090462949
H          -8.30260927072411   11.34788584654705    3.99261726420891
H         -12.97369989751179   15.60616502818385    5.32175897736526
H         -13.60440747756449   14.20899917113868    4.41298827803375
H         -12.65738276144987   15.46937357628297    3.57057029021074
H         -12.52067614518798   13.45546307751837    2.45876575775569
H         -15.80477811789627   11.92629225771982   -3.69885788933677
H         -17.56933557755941   12.91308362711722   -4.97366326814539
H         -18.89105978761098   15.08838272997237   -5.33446646286432
H         -19.73498034156648   17.27772087061265   -5.24676699174401
H         -20.25419743297279   19.74564610977618   -4.72566206019069
H         -19.48223820587733   21.67525738013392   -3.05825560795351
H         -18.18010670433925   21.26310032423262   -1.82687429510544
