98
 SCF done       -198.746494093222          0.000746553008
C          -0.07302786943122    4.40406486933450    2.73916030797329
C          -0.09262722977068    4.24899557835921    1.37522751744802
C           0.92697744327727    3.61467145605193    0.63574796876042
N           1.72072025266171    3.11199698679906   -0.02443157405946
C          -1.11066075556365    4.69659575494565    0.50841567381748
N          -1.88745544068219    5.03033624800580   -0.26942239275016
C           0.99968595540608    3.94804131628519    3.61902843864888
C           0.67487019859145    4.29717341862431    4.95191093110119
C           1.49282352087460    4.00700959188735    6.01617793225716
C           2.69334617245090    3.33892502223770    5.75396635200167
C           3.01056618370058    2.99311454642969    4.41922662802738
C           2.18212919492292    3.28631593656056    3.34300733187025
S           4.54041143562456    2.17413104258867    4.31782777834049
C           4.73013770366918    2.30791021030395    6.04592658752620
C           3.70235212385847    2.93130471064579    6.66914134758041
Br          6.26650694863988    1.61019267072014    6.86520427203876
C          -0.62813317279968    4.99398373671995    4.97402562170481
O          -1.18800621067652    5.42721103543238    5.95919517041008
C          -1.07826905286867    5.04426431473043    3.56285039981232
C          -2.24925751449551    5.61372526596479    3.13371490468926
C          -3.19196017894050    6.24717917591374    3.96519220091212
C          -4.31001433356180    6.83657244815110    3.44982415495315
C          -5.26429741223086    7.52232899026755    4.22535116670868
O          -6.31680590484207    8.13587074230460    3.61952850713977
C          -7.05771934218054    8.75935675193151    4.56818204155843
C          -6.48159584245151    8.53264249215703    5.81815296258185
C          -5.33739840288854    7.74433671240996    5.60609002682210
O          -4.48290901185177    7.29400188146608    6.53450685661835
O          -6.88050016360080    8.95465469708159    7.04553980792122
C          -8.19410491130854    9.53425976319478    4.23729676461239
C          -8.69847805094864    9.69012273909873    2.98438288089416
C          -9.78902277993588   10.54634979558241    2.71041467028729
C         -10.33040474572288   10.73610310042633    1.47812313660659
C         -11.36453303014485   11.67639564554610    1.23013889314262
O         -11.79677860593032   12.48423283169860    2.23564175425448
C         -12.71377959262524   13.29944279095045    1.75428993208574
C         -12.92263377040304   13.07884436129651    0.40753378169442
N         -13.84140638007385   13.87712888887570   -0.31657615466676
O         -14.65549204762336   14.48838171357365    0.34459045381484
O         -13.75819722723298   13.93785134974762   -1.52932925970015
C         -12.04559235321277   11.99755017987051    0.04465619816144
N         -11.88971575640574   11.28968187939810   -1.10967675287967
C         -12.40147318204986   11.51772705091218   -2.34047484794228
C         -12.26339787052684   10.64684565102854   -3.38020497342510
C         -12.74583873318545   10.83763881186102   -4.69932593132189
C         -12.50428833888382    9.79227190230906   -5.53441305197761
C         -11.82661499729448    8.70825023378990   -4.92835106929757
S         -11.47374597075988    9.06841651461833   -3.25693870823924
C         -11.48927235118115    7.49894064070946   -5.50689941119299
C         -11.72711834132490    7.09076197028998   -6.83647047455703
C         -11.30994721334100    5.82042461552489   -7.10250394691852
C         -10.72775787030357    5.15876972101538   -5.99806516496717
S         -10.70064219370537    6.21592540635472   -4.60960806734529
C         -10.24209216569963    3.86555118510980   -5.98919012937183
C          -9.72607147702773    3.23516387154692   -4.86400213678234
C          -9.21368646363927    1.95753530256873   -4.77454782425347
C          -8.81619863062373    1.01351423425675   -5.78143955588930
C          -8.36701441389001    1.28910942946371   -7.05321943402129
C          -7.97487019540354    0.30386120863855   -7.97923913525606
N          -7.67018075372758   -0.45557917308107   -8.78594284769954
C          -8.14074771746452    2.58488057948372   -7.55673551598705
N          -7.89249465250211    3.61112805357619   -8.00999340117965
C          -8.76569620258235   -0.30471447469224   -5.14742381119945
C          -8.92813802775645   -0.14007269224950   -3.74947902841953
C          -9.15350534786317    1.29260011520716   -3.45613546667571
O          -9.30743518361758    1.80713174701389   -2.36823889785340
C          -8.89789264248833   -1.19663200693069   -2.87390104363584
C          -8.71188521312120   -2.47899499100326   -3.40364268293090
C          -8.56345115314130   -2.63323189725822   -4.80090015503277
C          -8.58295760312866   -1.56195381201517   -5.68729726207490
S          -8.36248209713822   -4.30221214473953   -5.24265806567862
C          -8.47540316134487   -4.76279503830179   -3.56476799433681
C          -8.65526109883983   -3.72332660388110   -2.71671155433939
Br         -8.35220889395759   -6.57442101116342   -3.09208758655958
H           1.21529646319501    4.28829363515913    7.01995503195355
H           2.47120212393735    3.00039758263036    2.34577003396756
H           3.65579422812299    3.09792617224087    7.72985031817361
H          -2.47653754713299    5.59317336148411    2.07547163485788
H          -3.00941969491069    6.27743833556529    5.02819121122803
H          -4.49743650513884    6.81434033246613    2.38387934201943
H          -4.77326386218232    7.59664293454061    7.40586625023745
H          -7.68823688045934    9.47389494677210    6.97191369115759
H          -8.67075551811278   10.04983358896741    5.06208434649352
H          -8.23783431159872    9.15878348460427    2.16437246983980
H         -10.20135138338767   11.10422545208858    3.54064793166844
H          -9.95278892585002   10.17988171008868    0.63243870990213
H         -13.16627019673790   14.02277147993812    2.40417769415725
H         -11.31909772605974   10.45558310372407   -1.01784712857791
H         -12.94130990431893   12.44153789161538   -2.49038505735653
H         -13.25587098248773   11.74174217796707   -4.97844729455612
H         -12.80135986923832    9.76312648400855   -6.56656634325768
H         -12.19678018208673    7.73524097210143   -7.55728871178628
H         -11.39966352958761    5.33610897074489   -8.05822087922509
H         -10.31832497192003    3.32357089563234   -6.92038773762335
H          -9.81480404185030    3.75604669692479   -3.91489229852423
H          -9.01566778356022   -1.04194446555398   -1.81284681153154
H          -8.46993288596553   -1.73032515057612   -6.74536925111759
H          -8.74637599825087   -3.82679763660687   -1.65083319638964
