108
 SCF done       -201.927491483339          0.000966263871
C          -2.14320895145543    4.16546344160994    0.18370227829136
C          -1.80248542132285    4.37010206688621   -1.12850425057047
C          -0.97745371433071    5.42272051872865   -1.57752420285996
N          -0.30803566237570    6.25202012673188   -2.00405235239430
C          -2.22847671588567    3.57626954423365   -2.21409023087935
N          -2.54110293176192    2.98886793656352   -3.15004509932212
C          -1.76317991146860    5.01958063885589    1.30271962020050
C          -2.35460523190341    4.51400262756813    2.48652434377191
C          -2.18829342318422    5.11063859258089    3.71227501040734
C          -1.40344014442607    6.26708787751556    3.77361057865897
C          -0.81169087228639    6.76283578486764    2.58696913673216
C          -0.97772563380868    6.15703104345194    1.34795387557554
S           0.12530754185470    8.19434345290188    2.88982150425452
C          -0.28586486062543    8.10995998369484    4.58212289608419
C          -1.08421453656257    7.06473707141299    4.90603164684532
Br          0.37719985449508    9.40873871848221    5.76083073862180
C          -3.11254520533623    3.28854341761326    2.17113491762794
O          -3.61804335855961    2.52683242949484    2.96685970286268
C          -2.99695128846638    3.11386943431622    0.70340290701531
C          -3.48486497653539    2.04790138901763    0.00419777615463
C          -4.46984930221738    1.13170178958976    0.44042823701543
S          -4.48060391155279   -0.47103379671101   -0.24021431492734
C          -5.88068592102324   -0.90863639685352    0.68021992283445
C          -6.50363529573921   -2.24766151635276    0.64036142911426
O          -7.46476124999723   -2.51481136232958    1.30800049305010
O          -5.94390049682429   -3.14839103352557   -0.17752299060041
C          -6.34045279004745    0.13924821972800    1.43357984020305
C          -5.55897248510986    1.30605586830158    1.30280413797437
O          -5.85743151318004    2.51788092885577    1.77989952508674
C          -6.63323793828428    2.66209975366533    2.91164310489044
C          -7.43168078590040    3.80395885597401    2.96885636978940
C          -8.19439032466038    4.01531557421724    4.09384001152943
C          -8.16360376177494    3.09959205201043    5.15880796004456
C          -7.34071554959281    1.98492581008466    5.10572424537453
C          -6.57014616100364    1.77116295308472    3.97807460661155
C          -9.08854082519238    3.55051234024370    6.17606559698782
C          -9.67859701592038    4.75367309844651    5.74698068377349
C          -9.10386124627778    5.18155318819087    4.41505945156131
C          -8.20068305478518    6.43118230289613    4.55006337477157
C          -8.87975544024847    7.68614907612419    5.08253432710096
C         -10.19242117320281    5.38313496270328    3.35097056228530
C         -11.02208317551253    4.12448491955592    3.12441222741324
C         -10.65647448660072    5.34855985476284    6.50444959057469
C         -11.05165917948588    4.77153960534349    7.72547477789264
C         -10.42984859249415    3.58677549340452    8.14809899503931
C          -9.46071628396206    2.97354759730382    7.38288744789793
C         -12.07344544651290    5.44366570234136    8.48365220834341
C         -12.68136392468263    4.97356415267367    9.59746264349057
C         -13.68002973974461    5.63226987423789   10.37635470882755
C         -14.16144825303605    6.94878024431672   10.19794739893516
C         -15.16717805421276    7.53033153951707   11.06791305709492
N         -15.56913338901061    8.78087156093903   10.86590709357462
C         -15.07061889263271    9.49878411490118    9.87673806959326
C         -14.09148434963931    8.92200132741628    9.01589726368955
N         -13.66832611171155    7.69487405863443    9.19555153169646
C         -13.54612120236289    9.66592398677649    7.93903954737323
N         -13.10565219656438   10.26916988771494    7.07036524666651
C         -15.49966730921361   10.82891104416598    9.68024950645781
N         -15.80645144152391   11.91449380858210    9.47077961272923
C         -15.75240571775457    6.81134067460622   12.14740603026469
C         -15.26768713619163    5.48246096040683   12.31187042765588
C         -14.25787142578794    4.91954756629349   11.45747828102331
N         -13.95582228612386    3.66903938230227   11.80794225481190
S         -14.85075795049366    3.24765507739678   13.07705485483664
N         -15.66494200945770    4.62681267541195   13.24868366817536
C         -16.72877463016622    7.27335603468330   13.03779646406904
C         -17.37047522311724    8.48825003900547   13.17961934934850
C         -18.33514133467632    8.70805324506108   14.19714509413072
C         -18.86243368380763    9.96316524962335   14.22338887274407
C         -18.33402735845923   10.80088664503832   13.21937495665183
S         -17.15725822681621    9.94001294141407   12.23808422173806
C         -18.63488184023809   12.12523829410888   12.96718719993710
C         -19.55504674471674   12.95263349591059   13.67135086151506
C         -19.63528813064952   14.21652086281436   13.19850448871675
C         -18.77714690951217   14.47827958705238   12.07855269238691
S         -17.87180555155946   13.00995674975649   11.67461697681990
C         -18.63641400115862   15.62789683288944   11.40279416106027
H          -2.65199127716199    4.70017599133835    4.59558378871240
H          -0.50264073344683    6.57120626165044    0.47454269086072
H          -1.43328007249565    6.86233367980631    5.90209782699026
H          -3.07522527652421    1.84191090581919   -0.97716920252781
H          -5.17936870336842   -2.80812653902261   -0.66257930880958
H          -7.22727441052634    0.06258228002735    2.03666343026294
H          -7.43681421253679    4.48435561014006    2.13135936459710
H          -7.29108024838775    1.29324599366914    5.93232415992008
H          -5.89154113643613    0.93367948259499    3.93136122042497
H          -7.77957673154236    6.64217548172347    3.56423950837493
H          -7.37095702808873    6.17354106506772    5.21408960394874
H          -9.72789346888152    7.97320095480451    4.46710167848948
H          -8.16808697494105    8.50908798711755    5.07696530596716
H          -9.21819357713498    7.54135482010346    6.10461588758559
H          -9.71838743731618    5.68129929915735    2.41347459972756
H         -10.85285335102637    6.19174808587692    3.66540623332206
H         -10.39355213747787    3.30273419495144    2.78812281352679
H         -11.78256810472074    4.30798798629423    2.36897275188813
H         -11.51702536341386    3.82171519145184    4.04445590351141
H         -11.15083003051498    6.24929936055093    6.17231643237294
H         -10.71518169442263    3.14416527101825    9.08956622159470
H          -9.00251195859471    2.05376786734960    7.71465891476673
H         -12.37245758408197    6.40927233459131    8.10354201943500
H         -12.43628582553447    3.99029895844596    9.97649185604840
H         -17.02493039708013    6.52253800983746   13.76258652722220
H         -18.60629771094241    7.92327149487282   14.88189161305063
H         -19.60278259363095   10.29307146628434   14.93055503850601
H         -20.12273350823559   12.57704482641040   14.50411618590017
H         -20.27167575708869   14.98609985996882   13.59794204763520
H         -19.20301645245954   16.50128980677938   11.67514591572722
H         -17.95888236579944   15.71159816082838   10.57275981666559
