89
 SCF done       -171.707438608535          0.000895402129
C          -9.94433357557283   -0.18066845562904    2.17658082337813
C          -9.47295784921442   -0.69542398716592    3.35584959238214
C         -10.29845937616872   -1.24493005419301    4.35895958522945
N         -10.92282111185103   -1.70983831441982    5.20253755439131
C          -8.12040506473917   -0.68075976356737    3.76096505545018
N          -7.05341677516927   -0.66022607528162    4.18304573820029
C         -11.34582658242398   -0.02628160869151    1.81312814602936
C         -11.42340294887384    0.74463840931628    0.62768687686283
C         -12.61887950170778    1.07415383328768    0.03644696877463
C         -13.79433034554359    0.61714434086565    0.64128707282182
C         -13.70654009292959   -0.15764341666246    1.82313263534153
C         -12.49794393458862   -0.48758589449397    2.42324104768712
S         -15.27726565890669   -0.62792358278691    2.39710486829754
C         -16.02101631344535    0.21437719229219    1.06347477049382
C         -15.14014098122896    0.81552523761478    0.22861021390360
Br        -17.88847125500875    0.21315029569085    0.89424180212543
C         -10.06290886687985    1.09350178603559    0.16622347912462
O          -9.78937268613386    1.75192877588995   -0.81001436177534
C          -9.14260665054811    0.40825901828178    1.11736410109159
C          -7.80748778335245    0.19031533229473    0.94568984227246
C          -6.93693296869460    0.75750826689531   -0.01249923205537
O          -7.22923058700424    1.85520630982465   -0.75638708382625
C          -5.64998613187317    0.35329915720430   -0.33832227614209
C          -4.62332736409870   -0.66563037361666   -0.07799075707866
O          -4.62036424513927   -1.62104163818601    0.64920760121491
N          -3.57724735722466   -0.29120756474789   -0.92223959019166
C          -3.81734671140108    0.83460066669121   -1.70203687695775
O          -3.03983622476390    1.30861766455676   -2.49416439851302
C          -5.17090060181589    1.24232642451922   -1.32152273669155
C          -6.18652504217513    2.16546798315670   -1.55268668875666
C          -6.26381475479358    3.27871342422291   -2.42889047551387
C          -5.22843505052486    3.61505976819750   -3.23421363636468
C          -5.25381115002415    4.70581508928529   -4.15043959263304
C          -4.26490487543098    5.03323468167581   -5.00657835498550
C          -2.95224867971744    4.33480138683147   -5.11772868923388
C          -4.42058819663758    6.22981014519217   -5.91583053125005
N          -3.58604223259813    7.33023137294730   -5.48044437884847
C          -2.26674743859429    7.39378792800399   -5.80521929161966
C          -1.34805122027970    8.11965538626332   -5.13056961891209
C           0.02124100257113    8.23594870962853   -5.49843866989150
S           1.03999476254441    9.34119210216059   -4.59542521973627
C           2.39555376800579    8.89667605235520   -5.55209665475888
C           2.07243335681001    7.94119315650839   -6.51301898566495
C           0.73320565224081    7.57173432516995   -6.48471506185630
C           3.29295485971871    7.55998122853103   -7.31886755071718
C           3.64051499602648    6.08086739820670   -7.12751351201233
C           3.11145789482874    7.88603573404222   -8.80312910403781
C           4.33291989802967    8.45164540728973   -6.68082013495449
C           3.76922085493884    9.21232970286054   -5.65567451383603
S           4.90449963032213   10.25082026936889   -4.89496384273957
C           6.15734984908825    9.65443765574653   -5.96729792521291
C           5.68676951338781    8.70140956136441   -6.85445429450259
C           7.47574158379664   10.16186893487561   -5.85858786007459
S           8.79431575279974    9.59777543876184   -6.86490596128187
C           9.95552383720366   10.64775919519383   -6.15120381834017
C           9.37098328338553   11.41117637509597   -5.17297886254757
C           7.97612439439169   11.12824052173509   -5.01698181514185
O           7.43078607339815   11.89954433867089   -4.04930590311829
C           8.45625306606258   12.66612002096825   -3.59078518369633
N           8.17564435235552   13.59099352936323   -2.55606859923004
O           9.11190221918754   14.26504961047115   -2.16701890831434
O           7.04180547079448   13.65015662313950   -2.13408242074099
C           9.64904580725089   12.42781128530535   -4.21709458158160
H         -12.64652024366752    1.66639187645540   -0.86477532222631
H         -12.48109911692246   -1.08520903546720    3.31924280386641
H         -15.42605788916565    1.37439347293288   -0.64366458002901
H          -7.30926835559812   -0.52793292344474    1.58524716969016
H          -2.70957193875027   -0.80644196562709   -0.96735493515994
H          -7.19248715664220    3.83043842261381   -2.42200439562907
H          -4.33399287940735    3.01297901219201   -3.18518179951926
H          -6.16323233207375    5.29503770068938   -4.16152183248966
H          -2.83449765487186    3.53795713845393   -4.39278438727688
H          -2.13922634413502    5.04978294987010   -4.98067219621092
H          -2.84696116709958    3.91100478168652   -6.11668835298700
H          -5.45858144913312    6.57241253893126   -5.92762152743753
H          -4.12666004712292    5.97052816530326   -6.93689191930886
H          -3.83266799679155    7.72067678687881   -4.58088330445051
H          -1.99947269009003    6.86775540767663   -6.71044924994494
H          -1.65312497283749    8.66570059889376   -4.24819254482332
H           0.28849224198239    6.84559436147375   -7.14009328683681
H           2.84476593792519    5.45500799083388   -7.52410635995850
H           3.76592593811928    5.85719505670951   -6.07061446729103
H           4.56608376581488    5.84432119507717   -7.64647375268163
H           2.30658400401295    7.28677196467849   -9.22184358450778
H           4.02817954946257    7.67276136738098   -9.34733200578398
H           2.86615267103059    8.93781703247023   -8.93075668831153
H           6.32452646251241    8.23176544628279   -7.58197398306760
H          10.96917436348936   10.63375404479616   -6.49217516380135
H          10.57752360795532   12.91839028782597   -4.01097415373980
