104
 SCF done       -199.424187122405          0.000971799529
C          -7.29751439729379   -5.14211617639225   -2.42796130765656
C          -7.45152306566937   -5.84962688529548   -1.26188714353985
C          -7.83127234012308   -7.20643155098443   -1.20085700951402
N          -8.14152172593694   -8.30461531585556   -1.07165996996344
C          -7.18700507213483   -5.36967045352563    0.03340601481164
N          -6.95078741406644   -5.09089387470948    1.12320499099648
C          -7.39278609576515   -5.72253963060688   -3.76414037448158
C          -6.97065220243298   -4.75304526880830   -4.70418596666181
C          -6.92017192304452   -4.99749202917943   -6.05413158813673
C          -7.31629052499051   -6.26297367123844   -6.50076417127336
C          -7.74590114844225   -7.22404717163288   -5.55549715735682
C          -7.78929636408632   -6.97659992117247   -4.18852529526521
S          -8.19754784438019   -8.71676565806234   -6.32221340931299
C          -7.80679689380538   -8.03893190362482   -7.88028239607138
C          -7.36151974542655   -6.76095465266073   -7.83167487774980
Br         -8.02484222271266   -9.08170759177633   -9.42400529055955
C          -6.63338707486242   -3.50542998165067   -3.99227985738393
O          -6.20317792633989   -2.49063487359300   -4.50824231857067
C          -6.93151970290974   -3.74741477760025   -2.57523535908584
C          -6.97971632320776   -2.80481075334276   -1.57187683220026
C          -6.73417794420720   -1.42616470162286   -1.60656089717507
S          -6.29971666572824   -0.51975448814695   -3.04391290687866
C          -6.47032517348389    0.95181903924091   -2.19863261141990
C          -6.83233396635474    0.81217913678979   -0.88946776767718
C          -7.02676047378442    1.95889089335919    0.04679389982718
C          -6.95277010596277   -0.55059835530450   -0.51817260430491
C          -7.26587445697304   -0.90743887081951    0.83643786722606
C          -6.80180733248714   -1.96181906966984    1.54162956204449
C          -7.16658551388715   -2.19730239401077    2.89910962047073
C          -6.72319566910960   -3.25687213538883    3.60914480300521
C          -7.12626785086789   -3.52537822933805    4.95464250720742
C          -6.81013091873082   -4.63321309305660    5.64647506905465
C          -5.96514476111635   -5.74243288227222    5.10188164847223
C          -7.30918362589170   -4.82384933878778    7.05812595223857
N          -6.21731956518313   -4.99240359045715    7.98644107756176
C          -5.85062136814398   -6.16407387065198    8.50568666186446
C          -4.74001739011709   -6.32233928028626    9.28006907981401
C          -4.29064305484433   -7.49916410299097    9.92263574343646
C          -3.18290142917925   -7.39413655297145   10.81085686160847
C          -2.39292928793849   -6.20619577858721   11.15773982879104
O          -2.47449427969850   -5.06025079636544   10.79003312637258
N          -1.41879455690899   -6.63646192908119   12.09210080732570
C          -1.54084894575933   -8.00208618642188   12.37335944620587
O          -0.87937439978603   -8.62712844045740   13.15836157355891
C          -2.66429251843905   -8.46955932049999   11.53144783693838
C          -3.17992598340046   -9.74880303847118   11.43292769588030
C          -4.24056374137483   -9.88145000649390   10.55304990673296
C          -4.79398650275161   -8.82874704009517    9.81370019170502
C          -5.86939429196083   -9.42096724984720    8.97946272812131
O          -6.61704006011989   -8.93087917962179    8.16575427666850
N          -5.89509574348549  -10.77053523005178    9.28998939783732
C          -4.95684264278628  -11.14318243678270   10.22988884443057
O          -4.79040846881774  -12.25080081375642   10.66223594691557
C          -0.46674162731610   -5.76755305840201   12.57206209966009
C           0.54796763442213   -6.11128539483871   13.38639211647567
C           1.52177523230920   -5.17947226537205   13.83119563094889
C           2.68987620423732   -5.49740111264049   14.44892022091760
C           3.32978987028918   -6.78415978870101   14.64157762075168
C           3.26998625958445   -7.85749650108135   13.79253995933414
C           3.96993208252506   -9.06309108054933   14.00919503175105
N           4.50941379476160  -10.06535853300998   14.15604891362903
C           2.61448193586691   -7.84228857835276   12.54192849296678
N           2.16143066498639   -7.85324030348790   11.48753170785901
C           4.24002542435794   -6.64458870614768   15.77331873783091
C           4.34465770631690   -5.26928569100178   16.10484287135636
C           3.44207237356325   -4.48515016106062   15.23539010098360
O           3.30105147063480   -3.28448093410328   15.20303185306056
C           5.16347573317641   -4.81534929439063   17.11029565833132
C           5.90126626147914   -5.76141411220779   17.82974419614429
C           5.77714147051079   -7.13258433458875   17.50048326962207
C           4.95806857524901   -7.59254929375078   16.47676431377151
S           6.76422332792071   -8.12839250782250   18.52622707836924
C           7.32664365927619   -6.70910758686888   19.36893107292291
C           6.80256650270730   -5.54847298966377   18.90894715559991
Br          8.54971171650599   -6.89456854653680   20.77842104598377
H          -6.58828396910704   -4.23741119559400   -6.74381136935484
H          -8.12686312012250   -7.74257884329474   -3.51082393336341
H          -7.07650697416778   -6.19132395689963   -8.69730610217927
H          -7.32261516342412   -3.15968023918703   -0.60665822918431
H          -6.29404920116854    1.87741665469297   -2.71333517246158
H          -6.81516939859743    2.89662844966865   -0.45971974623743
H          -6.36513793668019    1.86686781574577    0.90676099336369
H          -8.05401284627960    1.98662967355315    0.40983455417526
H          -7.88691857367883   -0.18886616964991    1.35856346093367
H          -6.10074802090933   -2.65703006639651    1.10217599759210
H          -7.85186219019374   -1.49247564857893    3.35501472609110
H          -6.05696959527505   -3.95876411297721    3.13331467713633
H          -7.75806441180757   -2.77860267747964    5.42125276174160
H          -5.99445091628835   -6.60958926935272    5.75664498418080
H          -4.92659300538718   -5.42480749322444    5.00473150540212
H          -6.31372714625430   -6.04015908217362    4.11521962891708
H          -7.93226112221701   -5.72223272433004    7.10616729464927
H          -7.91171236743006   -3.96324685446790    7.36640249678904
H          -5.60084611074644   -4.20030381401460    8.11024153764476
H          -6.51414403596474   -6.98927588727491    8.29740208225198
H          -4.13624142930084   -5.44486918896951    9.46141595331546
H          -2.78403523085057  -10.58303266356082   11.98702682259517
H          -6.54134450609087  -11.41179199097181    8.85288220378648
H          -0.58204624872352   -4.76266389242518   12.18280555427671
H           0.62814795742700   -7.13219921039618   13.72602162382156
H           1.29565023809350   -4.12283531372469   13.74324876353207
H           5.23184127781769   -3.76299374974146   17.33729919145567
H           4.88883913097549   -8.64666704500264   16.26437529349242
H           7.03929734034832   -4.58118925546318   19.31305744250076
