107
 SCF done       -208.628967399802          0.000336285627
C         -13.69602724703064    2.82060339056552    1.27198316198340
C         -14.69027177668623    3.48634311674985    1.94220636514374
C         -15.94056497274849    2.91776572413452    2.24750065256920
N         -16.97765639094759    2.49991822593954    2.51187560036095
C         -14.61773562260569    4.83219130500392    2.36133506193828
N         -14.66229491073016    5.92627613655720    2.70556108826386
C         -13.79586670748272    1.47960289632809    0.71098093078154
C         -12.62946571523420    1.22669347996012   -0.05026132638793
C         -12.40987452861692    0.03443870159775   -0.69468230530240
C         -13.39455122007377   -0.95394569756891   -0.59391745336760
C         -14.55047522004814   -0.69786054704562    0.18030550022501
C         -14.76861959037548    0.50672219501690    0.83924926096790
S         -15.62192517042291   -2.06468189878329    0.19365390262445
C         -14.52764393630116   -2.93891474526578   -0.84592600127945
C         -13.40925388552298   -2.25130507459116   -1.17402368021083
Br        -14.96831304015592   -4.67522194157081   -1.38944559270357
C         -11.71175592696598    2.38129671366018    0.04942847980719
O         -10.58619999252975    2.42581334660821   -0.40408434336000
C         -12.39916564846742    3.35795127823375    0.92330460921504
C         -11.81121576189251    4.44040390114497    1.52171154581103
C         -10.59847317961774    5.05837323061154    1.13817012341949
C          -9.77409729022588    5.67531230825985    2.11700497326953
C          -8.47243735692631    6.19139082949324    1.80195379195648
N          -7.70005326766375    6.68930959040470    2.76731108258397
C          -8.15119481307171    6.71923383894832    4.00618428575631
C          -9.45027718761512    6.21984078598981    4.31704133063032
N         -10.21587720804689    5.70427386510918    3.38460130973064
C          -9.92275058843461    6.26622286733336    5.65430194594156
N         -10.26086762581560    6.31635460556431    6.74707819913272
C          -7.32173878997788    7.25248918314034    5.02178883586099
N          -6.66661405007984    7.67696906532769    5.86067710224875
C          -7.94239198530091    6.17593809358404    0.46233863886485
C          -8.85377401536898    5.71271909327173   -0.52564937427207
C         -10.14185050277328    5.15207423554236   -0.19438752619699
N         -10.82391173424510    4.79838567591613   -1.27969218952533
S          -9.93808241187025    5.07902725629092   -2.58306194489006
N          -8.65504228539623    5.71362900079698   -1.83675796663965
C          -6.60994354133263    6.54684214144245    0.27417286061998
C          -5.84289998710750    6.62679816347492   -0.88060670689527
C          -4.44678547533676    6.86070883921166   -0.89633144419333
C          -3.87475737156136    6.85323674533128   -2.14314748809319
C          -4.81348964682313    6.65717477147941   -3.16473326159719
S          -6.42038670364709    6.44343969093480   -2.50443412295695
C          -4.73405366195774    6.51933685552284   -4.55151433535766
C          -3.70454314147546    6.18745419265221   -5.44846444992439
C          -4.15983505555178    5.84363518433195   -6.69621865873450
C          -5.56790432423266    5.89199642059038   -6.84085508416259
S          -6.26871298647526    6.53966367296606   -5.37544089724364
C          -6.34794175997791    5.32009657209652   -7.82721298500488
C          -7.74602414241722    5.20280205502957   -7.75103217218699
S          -8.67901184194457    6.24843912898319   -6.72124016106328
C         -10.05748804103936    5.18344567592242   -6.78209230499971
C          -9.83070642876795    4.14009425406133   -7.68729584668245
C          -8.55838799599723    4.17122656753705   -8.25672522096595
C          -8.07732410344361    3.15982140536424   -9.25441628237281
C          -8.01285833377355    3.80447062842669  -10.64555374416850
C          -8.98330642892502    1.92372270503878   -9.23958648809804
C         -10.45779479895252    2.30822183713879   -9.25263636964826
C         -10.81256183936113    3.05159504540219   -7.96819910577433
C         -11.03405615636981    5.44815253960782   -5.80315510742748
C         -11.96718999110659    4.60324713011632   -5.27469357170640
C         -12.60854385473461    4.93674453859660   -4.06369694556422
C         -13.30046637604859    4.11661672777269   -3.21833024190242
C         -13.52920749619318    2.69378582862834   -3.22638996950945
C         -12.68863479236190    1.72208293966243   -3.71259503018257
C         -12.99938536204324    0.34891150908741   -3.71892171178904
N         -13.21538461589622   -0.77674091317290   -3.79656032817967
C         -11.39241718773194    1.96975201718714   -4.20105407767604
N         -10.32071341584329    2.10189944199818   -4.59458139414463
C         -14.74399159240711    2.45078076617494   -2.45466484262316
C         -15.09231133561754    3.64385898453787   -1.77049351979489
C         -14.14127237300277    4.71083027524430   -2.14489323028658
O         -14.08466216622190    5.84180536340201   -1.72310698719871
C         -16.20344884306136    3.73523389323633   -0.96813316731830
C         -17.02046205214879    2.60481214586073   -0.85073847032487
C         -16.66399357043210    1.42064094959650   -1.54040474329128
C         -15.53085294749281    1.32210106485628   -2.33952434446257
S         -17.82416074070418    0.15749702697279   -1.27507369564740
C         -18.75479942466955    1.21702921637368   -0.24841195464850
C         -18.22980657249444    2.45801285518336   -0.11862579660605
Br        -20.32737835698379    0.58139236520759    0.53706710764289
H         -11.50161057935569   -0.13777569082312   -1.25134219038804
H         -15.65381157743757    0.64715109831403    1.43733371586117
H         -12.63382944131412   -2.63119198076988   -1.81276945911780
H         -12.25235785571206    4.83526111050320    2.42945944001259
H          -6.08607573813605    6.78105651804346    1.19418649342390
H          -3.89543194213589    7.00461775469976    0.01659432246556
H          -2.82519418701898    6.99837870333900   -2.32964604834899
H          -2.67266693571698    6.13783545269731   -5.14856865542288
H          -3.52284975010908    5.50589925358677   -7.49508067203475
H          -5.83535238769438    4.79832827904411   -8.62374702282027
H          -7.06385400285417    2.84514352532163   -8.98211710073803
H          -7.34693020407075    4.66411827121021  -10.63948333794376
H          -8.99593085140176    4.14393991300931  -10.96045379698728
H          -7.64490501851711    3.08544570063850  -11.37339902189181
H          -8.78045743276837    1.34411289102457   -8.33659926755313
H          -8.74933142583493    1.29752090813608  -10.10167003099482
H         -10.67208377786236    2.94034357855622  -10.11557106482963
H         -11.07455934664761    1.41239956710643   -9.33581887588016
H         -10.78276566784070    2.35363397755242   -7.12329436157548
H         -11.82213212884752    3.46308623274794   -8.03126475046593
H         -10.89447413637339    6.39480362521147   -5.29219691853330
H         -12.16111539440505    3.64492031933772   -5.72521452723865
H         -12.57293121605072    5.97629989940291   -3.75341616792964
H         -16.44908354353465    4.65621176894035   -0.46183800327809
H         -15.30884375656146    0.40530605378400   -2.86085262698650
H         -18.67034331816445    3.23487001683892    0.47831815120356
