88
 SCF done       -179.123444069992          0.000479389085
C          -2.54122923303519    5.07829838171462    2.52153056681350
C          -1.52946250755085    4.41936860719874    1.86434746871997
C          -0.42670276575287    3.82092755761327    2.50420755661493
N           0.48341077332785    3.29118747823357    2.96361968350688
C          -1.41001126256271    4.31066380149378    0.46513258386028
N          -1.21646360610530    4.20623180452425   -0.66263976913106
C          -2.58893442970334    5.34292890766940    3.95604441683356
C          -3.65462236185167    6.23897589117877    4.22082970047029
C          -3.94495332857736    6.69301330576335    5.48260645190230
C          -3.15758978517874    6.22477705727232    6.54074070088699
C          -2.09780197802571    5.32725846841856    6.26845125588492
C          -1.79488674989909    4.87909936989355    4.98831600690961
S          -1.25239040234055    4.87814873408979    7.71876401787505
C          -2.32052204118300    5.88629829625210    8.65865318442182
C          -3.26146000521683    6.52766715381075    7.92581764934238
Br         -2.09184776389907    5.99547086480445   10.51654951785389
C          -4.33417145371334    6.56820258956884    2.95314446286668
O          -5.10123670492613    7.47963717525030    2.74929779875549
C          -3.72685681817322    5.66216593115674    1.93762399556734
C          -4.21419697000471    5.45183054437390    0.67972721437682
C          -5.52117376924862    5.77154655258714    0.25959506568790
O          -5.77597141278535    5.78729621100293   -1.08069859211530
C          -6.71818435142356    5.99581484450403    0.92687737619276
C          -7.37493527494853    5.92726357327295    2.24298118276756
O          -6.95526887991324    5.59944896105503    3.32341575321068
N          -8.70256709213394    6.21611120370013    1.96207903088014
C          -9.00292982234035    6.36671967438189    0.60338342342661
O         -10.10317298967060    6.57371621500573    0.16256437537218
C          -7.71070239417741    6.18216901602555   -0.05208826924751
C          -7.09720729040626    6.04400212725926   -1.30108087084993
C          -7.61589611121983    6.03393582273115   -2.59780426152892
C          -6.86648274948664    5.54301108507606   -3.64632639514890
C          -7.25958642701286    5.42021631536436   -4.96862530300516
C          -6.47591840357776    4.74141293760325   -5.89635152207291
C          -6.68309935543931    4.57350922436096   -7.27503916530897
C          -5.71494982278657    3.82339805118722   -7.89963051068646
C          -4.72131318588540    3.35678177820269   -7.03054602107750
S          -5.02231995583439    3.90460105782203   -5.40335185936094
C          -3.60521498287241    2.55792864732192   -7.28685991781033
C          -3.10386215821476    2.08220674920693   -8.50650991910790
C          -1.95391617894783    1.34551742175218   -8.37242968541930
C          -1.51574213201566    1.20279029264224   -7.04396666818088
S          -2.60697007207105    2.02943131896281   -5.95939841997967
C          -0.37643498394080    0.54353122567324   -6.60890188232843
C           0.03397676170544    0.38467327657378   -5.29702620663482
S          -0.87666474721895    0.89120865321558   -3.86724006769520
C           0.33809709434816    0.33621901880002   -2.72590826776257
C           1.41971412348674   -0.22065826967695   -3.45287665842101
C           1.22708947872524   -0.19788929013382   -4.84718866065636
O           2.26574209819650   -0.74982579873321   -5.48942020066554
C           3.13201258139822   -1.13388193675080   -4.51197341745988
N           4.33325573205259   -1.76259803654274   -4.89649229714994
O           5.08126391307758   -2.09847766673247   -3.99490279429879
O           4.53811201364961   -1.92637703109671   -6.08168981860031
C           2.67038637303354   -0.83720319594440   -3.24912114359845
C           0.22783014121655    0.43558238298463   -1.35647636628822
C          -0.86390195475872    0.88638577117999   -0.62400374811980
C          -0.90993899578892    0.97495151284890    0.78034726038660
C          -2.11102228237612    1.40380918988932    1.27183470643208
C          -3.06836094152604    1.66806810092459    0.27059957801773
S          -2.39166347480928    1.36018659823513   -1.31448318314249
C          -4.36659184063183    2.11292999874004    0.45258228833591
C          -5.00031848487143    2.39298007645466    1.69189247877873
C          -6.29109966406431    2.78789552827432    1.58116598511113
C          -6.77220328023913    2.84992974870735    0.23411517057826
S          -5.46318396970450    2.40018880083108   -0.87255104605621
C          -8.00271929781888    3.18720996910079   -0.18592006573431
H          -4.76127697999359    7.37721847069952    5.64920126671184
H          -0.97382398503302    4.19917291355727    4.83176251734007
H          -3.99991489605192    7.18767716554254    8.34285070932098
H          -3.59974118568628    4.97125344226327   -0.07106435476436
H          -9.40883677668642    6.27354237062468    2.68187537976992
H          -8.63791525736841    6.35410317107540   -2.72561542916693
H          -5.87799768993500    5.17511604493796   -3.39612828742730
H          -8.19846127660259    5.84094962510730   -5.29979094269387
H          -7.52774468880917    5.00917381505234   -7.77873672375383
H          -5.71143894991083    3.59786151368591   -8.95104749466000
H          -3.57809556029829    2.29783545276933   -9.44685518039507
H          -1.41626018935289    0.90719606108670   -9.19444657882917
H           0.27243828018415    0.11903101888799   -7.36430468681291
H           3.18313575545694   -1.04600646453472   -2.33320290677720
H           1.08676723914416    0.11343079352387   -0.78201740491612
H          -0.05887806370543    0.73478802280508    1.39224772930563
H          -2.32571283024510    1.51391028679876    2.31969612878508
H          -4.48284726810843    2.28795434561461    2.62852108113829
H          -6.92529196968154    3.03951375726286    2.41168874059683
H          -8.77952589099828    3.42195677102547    0.52004285291708
H          -8.26168000184763    3.20280179392437   -1.22892134971524
