90
 SCF done       -174.803950816385          0.000895763357
C          -3.00582551566756    5.98270106116713   -6.35333242866773
C          -2.34771240233064    7.18402603406908   -6.28198342195041
C          -1.12978979610836    7.45703104713834   -6.93809789746925
N          -0.14330576266623    7.73906741085448   -7.45334945518356
C          -2.76651646871428    8.29355186812033   -5.51841950989933
N          -3.02731842357051    9.22313037836686   -4.89642030476185
C          -2.52391743022178    4.79105186540467   -7.04371969762240
C          -3.41301540849890    3.72220141313483   -6.77306739252339
C          -3.22903874388178    2.45918466244852   -7.27857417104457
C          -2.10992788749107    2.23805902384819   -8.08930287981677
C          -1.22958237853331    3.31234223792707   -8.35755365443731
C          -1.41750033790987    4.59132910779404   -7.84710168142806
S           0.08127026120834    2.82264015349382   -9.38833137565812
C          -0.56143375464962    1.20330047622070   -9.44168133665660
C          -1.69911295475066    1.03534320496579   -8.72637477526308
Br          0.32877401071698   -0.11366274936464  -10.43733069142210
C          -4.51972318230992    4.21303679031970   -5.92983717026740
O          -5.50798428928062    3.57941838860222   -5.59868474442298
C          -4.24284824926648    5.63357999873980   -5.68515062828015
C          -5.09895177626591    6.52158655799076   -5.07734008695609
C          -6.19399840064900    6.24533722294504   -4.25144480101288
S          -7.35509268361824    7.54310315922654   -3.97124491495154
C          -8.30693535084061    6.61583739516224   -2.86142380928471
C          -7.72789142047871    5.35914351417189   -2.68522361949649
C          -6.56053369779698    5.15318602540646   -3.47165808983458
S          -5.88678016065726    3.61201135599903   -3.11605348796370
C          -7.20437590442305    3.37473031804486   -1.98163444462778
N          -8.06027509421074    4.31933101506449   -1.87450324369891
C          -9.48031586644849    7.14810413953414   -2.27318739296428
C         -10.25098750021898    6.45133145927586   -1.40405401200222
C         -11.43245028701052    6.99301498571994   -0.81567319548052
C         -12.23817106837005    6.34069682154984    0.04112609971708
C         -11.99940879118373    4.93747368187595    0.50397020298158
C         -13.47110100479441    6.98296784075037    0.63523428506682
N         -13.65444873572525    8.38234049727526    0.35778742625072
C         -14.10654220893873    8.87324538163934   -0.81998489017383
C         -14.54504346635152    8.14602311076960   -1.87606743841311
C         -15.05240426619585    8.72814826521394   -3.06383407226318
S         -15.56163710892575    7.70886861696407   -4.38631220252327
C         -16.00119180577860    9.05217381162311   -5.41903992290347
C         -15.76583881618306   10.24306347856809   -4.73069837080144
C         -15.23245734270442   10.05072025203980   -3.42869551662325
S         -14.95143306243974   11.59781594431507   -2.69009911093036
C         -15.56907007937491   12.33348024631442   -4.15967714594161
N         -15.94259901581617   11.54244239960951   -5.08627590406809
C         -16.43460961867505    8.86834722963937   -6.73897809325420
C         -16.69068617712937    9.92246443496428   -7.57149070441997
C         -17.05105032628678    9.78452414880968   -8.91784854592744
C         -17.14207847380789   10.80764531918083   -9.82784262039757
C         -16.71058616246770   12.17990205061275   -9.73514756600022
C         -15.66791418798129   12.67161308987672   -8.98630160353011
C         -15.30349945956297   14.03134638693311   -8.94791587336446
N         -14.98072185310991   15.12974869042912   -8.85283150558054
C         -14.75503208369611   11.88179471644603   -8.25657688548398
N         -13.92772849133963   11.30590589321861   -7.70600946701370
C         -17.43536581891521   12.93149349504115  -10.75866850282186
C         -18.12187957980842   12.01327389656944  -11.59231996512277
C         -17.91243333056415   10.64071913936702  -11.07857958625906
O         -18.32460324914449    9.60495055029484  -11.55481537844454
C         -18.86300447159773   12.41364040211243  -12.67632723230966
C         -18.94105649184051   13.78514180108720  -12.94435007671511
C         -18.26313312549944   14.69322645643604  -12.09876707529063
C         -17.50422467874424   14.28821726282585  -11.00683725596547
S         -18.50400390959591   16.33897321186611  -12.60366688167477
C         -19.49604147168477   15.79040312461157  -13.92870105630920
C         -19.64162643799500   14.44621989827404  -13.99109679023781
Br        -20.24784744425383   17.04606989976343  -15.10268794819642
H          -3.92508113078449    1.66555820542241   -7.05647523108727
H          -0.72187441893855    5.37817627392127   -8.08620111971188
H          -2.22851678998406    0.10307507743305   -8.65140039907610
H          -4.93724643704330    7.57665664398581   -5.26160076702060
H          -7.27509207842887    2.45766306310356   -1.42953818850729
H          -9.74538517828546    8.15843245362077   -2.55544186227156
H          -9.94894018389439    5.44784796017521   -1.14562781689490
H         -11.67710786217669    8.00700826637022   -1.10413930198943
H         -11.68309391133145    4.30000756258702   -0.31759531437617
H         -12.90108481439239    4.51857767525951    0.94479544763285
H         -11.21309759698478    4.92006466657632    1.25928018453565
H         -13.43660977529544    6.85815115513644    1.72303757987905
H         -14.35486048333892    6.44083435359053    0.27742323069980
H         -13.17708645366730    9.02527254341959    0.96808241355728
H         -14.13553294637532    9.95315565746847   -0.86819858357662
H         -14.50371372787566    7.06844617629455   -1.86488410684075
H         -15.61627843469869   13.40207246625506   -4.23519775732189
H         -16.50281573085907    7.85290246306898   -7.10607370365865
H         -16.60313768718211   10.91495855583919   -7.15537511680541
H         -17.35270101443336    8.80601694765945   -9.27543483003996
H         -19.36861671510984   11.69290231609252  -13.29966330683107
H         -17.00770507357149   15.01756104880675  -10.38853849535723
H         -20.21907108237054   13.93903749907182  -14.74231146497905
