110
 SCF done       -204.230575417421          0.000263139263
C          -5.09007493522680    5.05257893636160   -7.79785697571500
C          -5.53119920235282    3.77127696341874   -7.99574114896406
C          -5.35416862825859    3.04924348891824   -9.19243620632649
N          -5.22683878134449    2.40572813908393  -10.13511655565760
C          -6.15032816268332    2.99972776148243   -6.99231219782408
N          -6.62839515739960    2.31256176894738   -6.20577499261356
C          -4.35726437320612    5.87719942032641   -8.74152439740297
C          -3.88521471970955    7.02832140897556   -8.06035559958343
C          -3.22121865437528    8.04500817888336   -8.70164733270229
C          -3.04398058557459    7.93296893323811  -10.08414554252013
C          -3.49324815886716    6.76799465767539  -10.75392672118875
C          -4.13861508874572    5.72602888550115  -10.09920255049062
S          -3.19825526922049    6.85893967033314  -12.46484768439205
C          -2.51324179412078    8.44921424438651  -12.26170193980740
C          -2.48754897338857    8.88390642079483  -10.97876510526621
Br         -1.93584067365703    9.42047850865594  -13.75916161245646
C          -4.28365987972764    6.96540958815169   -6.64106051121767
O          -3.96048775101001    7.73355047373858   -5.76437378908019
C          -5.21556885716082    5.80446853469019   -6.55815763795018
C          -6.22427034876289    5.67556022253235   -5.65662507113203
C          -6.37961754264207    6.41760493902142   -4.44508685497729
C          -5.40307001682564    6.82542048066373   -3.61694358628393
C          -5.98457888784603    7.46751071006328   -2.40595495176527
C          -7.38009068917244    7.91168429555613   -2.88735252082795
C          -7.73577333120705    6.78272972768061   -3.87443050722255
C          -8.21864266360583    8.05217290970406   -1.61159482642602
C          -7.58814715403061    7.05401089986042   -0.60518401301060
C          -8.67248769345049    6.03703184586373   -0.38181634652354
C          -9.79222742707670    6.35371844288398   -1.00742750263595
C          -9.69900068196828    7.65595485903981   -1.74072750535159
C          -6.35635402427341    6.51323052589831   -1.28969016102947
C          -5.86216092337644    5.29736722501489   -1.05854632138520
C          -4.85783652476245    4.63159601181635   -1.85680601929171
S          -5.30957970222121    3.16680300219815   -2.64782336873302
C          -3.81917232168385    3.07664477490187   -3.54054868624286
C          -2.97185856099552    4.13918145850417   -3.17372736656975
C          -3.56199535848248    5.00702553760651   -2.20115821466665
C          -2.83046144832082    6.09907257830876   -1.68586539898179
C          -1.56775059107270    6.31579766168113   -2.15034317660121
F          -0.84240070007340    7.33729796884027   -1.66988601039789
C          -0.99329322442044    5.47413479334799   -3.13357572836390
F           0.25269905257480    5.73357925662359   -3.55471946277976
C          -1.67324257881154    4.40301261114250   -3.64159946067204
C          -3.61973917857182    2.09986179462624   -4.52216261640126
C          -4.45181875465005    1.02559578306022   -4.71733909692300
C          -4.41043843299368    0.12440943600877   -5.78525424241425
C          -3.78058504590676    0.27662935241305   -7.00231696684940
C          -3.81900102214451   -0.64912412479087   -8.06862120397100
C          -3.21441999062550   -0.22170762335086   -9.21524409756026
C          -2.67380510882613    1.07461882417385   -9.11937928952705
S          -2.91744649420082    1.71719233113954   -7.51795700930743
C          -2.02844104828505    1.81058265494971  -10.10163926361362
C          -1.64117824276663    1.39025016741988  -11.38537053304182
C          -0.98849214945223    2.35352569359292  -12.10373004777698
C          -0.84820387218848    3.57993093132182  -11.42541023449527
S          -1.57478150363148    3.47990274083614   -9.83961052307794
C          -0.24103670522153    4.72496314699376  -11.91525660866076
C          -0.20283142136371    5.91966139417160  -11.21702387288706
C           0.33550028904640    7.13985185479480  -11.58223831621985
C           0.48617293378395    8.16567583259032  -10.53108100041026
O           0.01882858152831    8.12749766804404   -9.40825081788886
C           1.31521575611530    9.22946466996693  -11.12488467881547
C           1.77861730458857   10.37874811926480  -10.55544189207360
C           2.57786938427965   11.25505682125149  -11.32398668340281
C           2.88077114927709   10.91429366330892  -12.67327411959563
C           3.67952422508386   11.78835636819422  -13.43503527277403
C           4.14333031181000   12.94169421926728  -12.86595451912860
C           3.85600397436819   13.29481972614716  -11.54128619723162
C           3.08229613369940   12.45642674570129  -10.78726917000467
F           4.90703915701312   13.77995702937105  -13.59356296008148
C           2.37815219882739    9.71780962791418  -13.23866696758628
C           1.60191457785416    8.88867773413915  -12.47743348772425
C           0.90175315986933    7.64159908020649  -12.80175780270476
C           0.69569461978114    7.19156456166616  -14.08812158740449
C          -0.27042263696906    6.24376804016180  -14.47150698171698
N          -1.09214687492200    5.54041906652485  -14.86123559562901
C           1.33685689154384    7.72346369770088  -15.22335721801544
N           1.84975300633282    8.07621883458339  -16.18907466171163
H          -2.86412395312189    8.90740719609171   -8.16265035447583
H          -4.48353851478610    4.86539082032545  -10.64887777390246
H          -2.09667107992896    9.83741090815955  -10.67400987645532
H          -7.03559713774343    4.99326767505404   -5.88932630027717
H          -4.35091166622536    6.70703657660226   -3.77641814591867
H          -5.37396718440139    8.28495970771625   -2.01505626364193
H          -7.33031863986794    8.85443680181830   -3.43660033825341
H          -8.42924133155166    7.10118421630028   -4.65223031843040
H          -8.16543661405317    5.92459461224114   -3.35093800821217
H          -8.12563046270732    9.07828104631437   -1.25165129244979
H          -7.31348253894698    7.53059917801995    0.34267163249010
H          -8.51591689498622    5.16759930841358    0.23136217472771
H         -10.70479449214755    5.78277392790138   -0.99753060205043
H         -10.34973905865622    8.39595801277108   -1.26854253243011
H         -10.01528317133295    7.56317433846176   -2.77982531812278
H          -6.33380815422766    4.67746533778557   -0.30655414722004
H          -3.26065930712533    6.74415801127931   -0.93775420236040
H          -1.20450816401045    3.77605860264095   -4.38228122874342
H          -2.74244416675198    2.21976576966862   -5.14098147516427
H          -5.22128043331025    0.85017270926322   -3.97637980919267
H          -5.00641614698303   -0.77373673651608   -5.68679441001875
H          -4.30623431359958   -1.60204824777463   -7.96066722202909
H          -3.17478240434159   -0.78844963004372  -10.12708344872743
H          -1.83735424829331    0.39620938304591  -11.74386727398432
H          -0.61629665888837    2.22308582310965  -13.10396975813024
H           0.21530941112814    4.64202620214234  -12.88880847524150
H          -0.60253484832292    5.90695261816143  -10.20513953902852
H           1.53945761427819   10.61771957902256   -9.52974812283106
H           3.91833658508113   11.54984185816226  -14.45967744321804
H           4.24986664691630   14.21770575384175  -11.14588527524235
H           2.84725635259435   12.70626556374147   -9.76336659634406
H           2.62639279272984    9.49091849064740  -14.26268115552287
