118
 SCF done       -208.432285446449          0.000899905316
C          -9.44376541432400   -4.48310799337243   -3.05932788667181
C         -10.70755791804029   -4.38895223727540   -2.53077046381468
C         -11.37644359472656   -5.44423887797815   -1.88037477635259
N         -11.96860222525383   -6.27118494451762   -1.34741072665047
C         -11.49166863575182   -3.22045509707544   -2.57840862829146
N         -12.15524170683449   -2.28266724159545   -2.59472150938058
C          -8.59206943396002   -5.67046766506639   -3.03365403467625
C          -7.36237651999754   -5.36743323982109   -3.67437248770933
C          -6.35275142105157   -6.28811963296247   -3.81302201659584
C          -6.56411784593679   -7.57105108135735   -3.29607150794300
C          -7.79233706562961   -7.86407009131871   -2.65865219578986
C          -8.81433959993665   -6.93161896899842   -2.51742307737981
S          -7.84432988276542   -9.50674594521582   -2.09624394801797
C          -6.23720940788437   -9.77437990026416   -2.71684646815597
C          -5.68785764733340   -8.69032989387246   -3.31454734892853
Br         -5.43631787105318  -11.45911377208273   -2.51961883242449
C          -7.40019602792021   -3.97149729324496   -4.12763382725464
O          -6.51819848056389   -3.35940412718914   -4.73328797748073
C          -8.70459561773803   -3.44842019928914   -3.73757492609793
C          -9.09052356002004   -2.16077627479315   -4.05147832368951
N          -8.24506076913613   -1.35502941430469   -4.68421522540842
C          -8.45990147458003   -0.07437908084371   -5.14659883001968
C          -9.57778251813942    0.68541421744025   -4.94263062616007
S          -9.45774367196609    2.21582139813066   -5.69496204461987
C          -7.89664784622688    1.84815765564055   -6.31256021454319
C          -7.46624322982707    0.60453826921246   -5.94279348129148
N          -6.27826789700293   -0.01445282338236   -6.27902495440895
C          -5.09587057549816    0.54417650660312   -6.67821541901835
C          -4.76010355532225    1.85542225142480   -6.68682892819736
C          -3.51606003846049    2.32183542624341   -7.16308230816922
C          -3.19860775758904    3.64472982080423   -7.29453328476629
C          -1.99745789384772    4.19683889824209   -7.80840257017706
C          -1.99853211496711    5.55242087170890   -7.90725329293283
C          -3.19980191747498    6.16265822502663   -7.47198634541435
S          -4.32078055796315    4.94633015771708   -6.89783247900951
C          -3.53018873927707    7.49878134846184   -7.51104084985424
C          -2.76723924298631    8.56766958549321   -8.03730349271168
C          -3.40345844086475    9.76627799206376   -8.00833325637805
C          -4.71143409235367    9.73687915631634   -7.44346552468813
S          -5.07354808817442    8.09343666731877   -6.92742827188952
C          -5.55353487310526   10.80936527426512   -7.39475229893441
C          -6.87060712274801   10.91418137289963   -6.84844838642375
C          -7.39891069363117    9.98881272270515   -5.93062586225059
C          -8.66434533081477   10.17087903657421   -5.43583453734826
C          -9.45323333143530   11.25844283077336   -5.85427807316420
C          -8.94232463712555   12.18745690362973   -6.75508071939390
C          -7.66114043998952   12.01785889644182   -7.22550560451944
C         -10.72898717343327   11.18148653499861   -5.19157672840384
C         -10.72960585434247   10.05936493661231   -4.33636395370438
C          -9.38892208754445    9.36231853903909   -4.38066750020385
C          -9.50465979860316    7.87871233253559   -4.75808839263324
C         -10.15305713129745    7.67472361858086   -6.12244526939649
C          -8.60458837156098    9.55333644511845   -3.05922840835356
C          -9.25813732306556    8.99310949682940   -1.80278139153066
C         -11.84726612965686    9.74200261978947   -3.60973412493062
C         -12.98773619214552   10.56486410350371   -3.68597885409994
C         -12.96815630670131   11.67490332494853   -4.54980457273396
C         -11.85804691132036   11.98587750251993   -5.30122390824704
C         -14.15039129220537   10.35170822760907   -2.87924258045145
C         -14.28438726651590    9.45285591485140   -1.86822586629823
C         -15.43690452434763    9.40809583465328   -1.05917659632849
C         -15.62136498209429    8.71172462231719    0.10359936297733
C         -14.70708544698686    7.98746821258562    0.95370214184178
C         -13.35948665949871    8.20620455291321    1.10887391644037
C         -12.54159959168764    7.47575825385060    1.99440966636285
N         -11.81779446581702    6.90065151715656    2.67639127160889
C         -12.62677429428520    9.24570901921063    0.50193566328529
N         -11.96773537988502   10.09219299005501    0.09098285007727
C         -15.50953811831467    7.11602344747545    1.81079275109852
C         -16.87662578538175    7.45268326288671    1.64885125760167
C         -16.99579279265135    8.50713833585418    0.61983287087250
O         -18.00534212078443    9.06226588631433    0.24484182130566
C         -17.87787669923227    6.83884907859976    2.36003118973122
C         -17.51519765724629    5.83586491853065    3.26593080913224
C         -16.14991589902412    5.49503828144333    3.40746784280254
C         -15.13517420614627    6.12230979390026    2.69437671871698
S         -15.92583776012739    4.22270652445667    4.57020352215977
C         -17.64608096496023    4.17095960332359    4.84973567202127
C         -18.35365366364925    5.05749859187920    4.11085964551188
Br        -18.34508392200911    2.95089409176230    6.09176176186788
H          -5.42792334141614   -6.02998953925056   -4.30479685948832
H          -9.73251810408710   -7.20398782567687   -2.02446792751584
H          -4.70587355825680   -8.67956003617730   -3.75110445459384
H         -10.07218806999202   -1.78138908012019   -3.80970259079182
H          -7.32978494439805   -1.79556845273855   -4.85958000408802
H         -10.45782951277482    0.43547165900701   -4.38597874198148
H          -7.41339062358581    2.56459328866822   -6.94185622931516
H          -6.27298346335834   -1.02249714569607   -6.21247583676645
H          -4.37138895543209   -0.18863139589501   -7.00812467481115
H          -5.44498409594175    2.60255813509874   -6.31917142789468
H          -2.77899017443319    1.59485944661701   -7.47745470510222
H          -1.17597471943453    3.56571980848344   -8.09938065394655
H          -1.17554613208595    6.13254807109301   -8.28463353160365
H          -1.78079278163341    8.41586701406703   -8.43772616407573
H          -2.98374692152140   10.68516598050980   -8.37875596732498
H          -5.17589518662954   11.70841187230497   -7.86818157734805
H          -6.79677314942070    9.16007913091943   -5.59450079136620
H          -9.53610285750658   13.03234236510559   -7.07093579208131
H          -7.24700540639504   12.73705946302680   -7.91791899367156
H         -10.09618240534378    7.36158100442923   -4.00154735958085
H          -8.50532747853770    7.43880989248119   -4.76374082707872
H         -11.15202357328248    8.10582838372366   -6.14137733662583
H         -10.23114798911736    6.61278557630970   -6.34479969209341
H          -9.56046909229995    8.14707353615564   -6.90264805722183
H          -8.44247747980828   10.62500428813184   -2.91779572606224
H          -7.62567516180335    9.08666446228769   -3.19213034225952
H         -10.16615973983093    9.53550928483754   -1.55327388988372
H          -8.57101553657487    9.09972843284651   -0.96614113899198
H          -9.48968380163312    7.93635753917111   -1.91047295687237
H         -11.86119458404379    8.86577397539522   -2.98305870516728
H         -13.84863734102945   12.29845376442717   -4.61298976020592
H         -11.86200478553333   12.83991624602504   -5.96186776482418
H         -14.97185532935335   11.03823183150663   -3.04965403510360
H         -13.48816844708520    8.75760183166818   -1.65310892568323
H         -16.31250359218069    9.94494968938939   -1.41052659833384
H         -18.90958672819840    7.12249545856064    2.22319772212399
H         -14.10933222631646    5.82450941756206    2.83423812700296
H         -19.42238920239572    5.16042251832470    4.15781945276031
