114
 SCF done       -214.958899670126          0.000788457716
C         -11.60581502105014    5.32514418728465   19.27670000242960
C         -11.38870922638569    3.98016071135474   19.43674210630826
C         -11.20932952080738    3.35432649674323   20.68725400883679
N         -11.05786020551743    2.78793541407237   21.67449030352087
C         -11.25370324786340    3.04718197061903   18.38677609204649
N         -11.09246810359592    2.23283094235261   17.59369844685004
C         -11.60143837836682    6.31639064986288   20.34942013283250
C         -11.70156297762392    7.60739565232908   19.77337468080918
C         -11.70566320372886    8.75746446591664   20.52399778500605
C         -11.61125009847924    8.62795941453966   21.91383786432424
C         -11.51706518610320    7.33535878021655   22.48132223385143
C         -11.50901319951295    6.17191127188732   21.72018043056044
S         -11.41437178813897    7.40419283709313   24.21405604935802
C         -11.49596232904513    9.14495145481958   24.15362370216760
C         -11.59633170411609    9.65066060263012   22.90154460382224
Br        -11.44255745766686   10.13008686150830   25.74860785383440
C         -11.79987266483467    7.47305295946183   18.30979135327577
O         -11.88745944676361    8.38677775510248   17.50503885527705
C         -11.79505153838914    6.03640351710156   18.03055832980901
C         -12.02849915964342    5.47344465712389   16.79851125228898
C         -12.16887641777891    6.10383743392965   15.55887955642757
S         -11.93586111867648    7.78319701684311   15.16488141552457
C         -12.14053080177854    7.48680189546506   13.45103099261784
C         -12.47675111097647    6.14175307960354   13.22118361475595
C         -12.47848794285680    5.38579366921710   14.38496028795536
O         -12.74193493044870    4.05799230982049   14.49152645874022
C         -13.09274203355085    3.23850684761346   13.48768910649217
O         -13.24937286045030    2.07242270079214   13.70864099001131
C         -13.32675271770327    3.76704273103413   12.07965884100749
O         -13.70769995865686    3.04271289777724   11.20278364838763
S         -13.05364731954136    5.47666722589394   11.70003076910384
C         -11.95629895730388    8.58376272436804   12.60118455478691
C         -11.62699823925747    8.64112434440252   11.26420243438066
C         -11.47298150380444    9.84347303082750   10.52630430064460
C         -11.05930736039769    9.67035545008530    9.23943594057066
C         -10.85338124175463    8.31980593448341    8.89018606947264
S         -11.19595240253220    7.28123962216927   10.25936133786465
C         -10.46158354985994    7.77252649941572    7.68399569819094
C         -10.09064076758009    8.42929602607574    6.48675569146087
C          -9.75480746883786    7.58064682635637    5.48038830003712
C          -9.84640111014475    6.19725984274847    5.81013792854569
S         -10.38154055565192    6.04237445088705    7.47968985131681
C          -9.51760830807799    5.17271717722422    4.96970275533270
C          -9.57599150220318    3.75979308020093    5.18393547576594
C          -8.87795489677848    2.92555095812255    4.28557381482735
C          -8.87527439336840    1.56888591529591    4.47565685900636
C          -9.59206019202732    0.99497699916861    5.54406856029422
C         -10.31470181177477    1.79979214015446    6.41580648357766
C         -10.29737957161141    3.16511930086046    6.23399574805350
C          -9.41046772603056   -0.43620167716235    5.50492303666704
C          -8.56625456408241   -0.75057275864587    4.42377637240585
C          -8.17525051072535    0.49890375099735    3.67069952684842
C          -8.69574592775713    0.45723198314167    2.22066879786492
C         -10.19966005373208    0.22693289111733    2.13479811279103
C          -6.64931826289459    0.70523381333420    3.66668784298232
C          -6.05500708725649    0.75559266117377    5.06917800435554
C          -8.20943450053973   -2.05132804152410    4.17775139457930
C          -8.71712629659914   -3.08023123652413    4.99081768772152
C          -9.56605136863510   -2.74972748422004    6.05805635670165
C          -9.90921875405535   -1.44168051290154    6.32426489839210
C          -8.35480211794914   -4.43294988866306    4.66673596890381
C          -8.90292306558430   -5.56489890025284    5.16708066405641
C          -8.49276295384938   -6.88120367513658    4.82891268129058
C          -7.81884029613692   -7.35552747474963    3.74288201140823
C          -7.48680653012226   -6.80750491388399    2.44475037509497
C          -8.19615985938670   -5.87614489502745    1.73005069207083
C          -7.84844973809290   -5.44490408567115    0.43418075060321
N          -7.59789393319931   -5.03474615369338   -0.60868139085485
C          -9.38654096111727   -5.26910607170339    2.17712160634405
N         -10.36767234655026   -4.75371004601397    2.47550733773344
C          -6.38659348560912   -7.60401931182913    1.90678021445976
C          -6.20776059188637   -8.74692017319346    2.72522580644047
C          -7.15687024182860   -8.68542005310718    3.85451737468708
O          -7.33217269575254   -9.51099638255441    4.72085783409712
C          -5.26147232811772   -9.70591924120636    2.45791445937390
C          -4.44427419710306   -9.52144833625570    1.33747288663064
C          -4.62077182893637   -8.36904683877944    0.53496183919437
C          -5.58472065309543   -7.40385063939283    0.79943165786414
S          -3.49307109586969   -8.33130580727747   -0.78628810876659
C          -2.81377351239170   -9.84696847731750   -0.25488115240523
C          -3.39718641194258  -10.35478294424865    0.85652063048671
Br         -1.39165964720140  -10.60831139024939   -1.21177539476763
H         -11.77943762226937    9.72605896992651   20.05503981586774
H         -11.43699065379238    5.21055698515274   22.20054915518671
H         -11.65766488055953   10.70078016845553   22.68139874081237
H         -12.12801823326309    4.39583601724455   16.74485351910959
H         -11.98677701346436    9.54130742847451   13.10767483150220
H         -11.68487748488808   10.79884043185997   10.97250190689389
H         -10.90838340584339   10.47105905672884    8.53791535717715
H         -10.07452213794923    9.50153802931157    6.40975163749205
H          -9.44364437165610    7.89611233105825    4.49992856363318
H          -9.12327269200060    5.47804653510700    4.00691483971177
H          -8.33121177329889    3.37154290235427    3.46689034099664
H         -10.88327544655043    1.36658729582392    7.22416742879661
H         -10.87825378398496    3.78332892465101    6.89850962398957
H          -8.17803302522487   -0.34184283588059    1.68632495446540
H          -8.44364228292686    1.40204230889265    1.73416016475658
H         -10.46907336222950   -0.73134191404182    2.57287091306033
H         -10.51612407583998    0.22722385743467    1.09460658625547
H         -10.74144819523286    1.01074582817785    2.65998250411311
H          -6.42348339965110    1.63646968693693    3.14305094685343
H          -6.18854958733395   -0.11089500260421    3.10651724739348
H          -6.48348413042708    1.57625826381676    5.64033838094039
H          -4.97857116729553    0.90023316783210    5.01395594656184
H          -6.25045601152974   -0.17159410150558    5.60349422326042
H          -7.56003933223972   -2.30057694124852    3.35037804053668
H          -9.94573856038990   -3.53210331521100    6.69583365479501
H         -10.55549271192620   -1.20330390630471    7.15514464304431
H          -7.54431685006937   -4.52748861655583    3.95370923153021
H          -9.66436925076095   -5.49794921814028    5.93098716256108
H          -8.68302846948982   -7.63934866295651    5.58426393282444
H          -5.15335361713740  -10.57082765545631    3.09326739483955
H          -5.67719813405793   -6.53924379286738    0.16322437423801
H          -3.10182929070034  -11.27776864805185    1.32105958890987
