90
 SCF done       -166.967178292764          0.002638490845
C         -11.94150139535293   -6.44721371906039   -8.03535684200927
C         -10.96155868720635   -6.86011136501885   -7.14760545800673
C         -10.15791712131857   -8.00044001008919   -7.33249231265585
N          -9.47745655528041   -8.92328473197394   -7.40607827835739
C         -10.62475625377953   -6.22821196444293   -5.94799490993171
N         -10.25472924209141   -5.78023803007930   -4.95218847314518
C         -12.23038765732757   -7.09306009707088   -9.31578484209655
C         -13.30894795812360   -6.41081704069048   -9.92955062110532
C         -13.80217678776200   -6.76158278525696  -11.15978544933849
C         -13.19819454122331   -7.83829015379999  -11.82355185638285
C         -12.12078066948940   -8.51074001225015  -11.20471614383437
C         -11.62342963615061   -8.15640375554879   -9.95464580991045
S         -11.51213837482298   -9.79860262097027  -12.20213657065559
C         -12.70027457405117   -9.41948468469148  -13.42043002790269
C         -13.51156459870226   -8.38407595838158  -13.09922599517953
Br        -12.75189629762875  -10.41954919344998  -15.00606478395689
C         -13.74415219081131   -5.30317274959056   -9.04621680877635
O         -14.65753820793058   -4.52899924755961   -9.26232028861331
C         -12.84050813475628   -5.34660277103372   -7.88684031055984
C         -12.85437402338463   -4.43543226470548   -6.83943757385166
C         -13.71154787483174   -3.36098652856178   -6.70408691659124
C         -13.59673874117843   -2.45468585675158   -5.65551033784129
C         -14.36481324707979   -1.29367592877233   -5.44455923030055
C         -13.97153466834663   -0.55376389991863   -4.36117137270369
C         -12.88156348435480   -1.10692872818782   -3.66753159682872
S         -12.38116461953978   -2.60652763074690   -4.41398245709768
C         -12.18746326770340   -0.59242340108767   -2.57965605873646
C         -12.34687549915871    0.67212705747467   -1.96774408927647
C         -11.43227877204499    0.92020160474916   -0.99088836751228
C         -10.50577413515416   -0.13531274141928   -0.77183543463034
S         -10.88442696216164   -1.47808785092284   -1.84433413083425
C          -9.54033094443618   -0.13638717581848    0.19904533453919
C          -8.58263855082003   -1.14810009464857    0.51060342219541
C          -7.90289207550488   -1.91107021191202   -0.49670641359297
C          -7.89060280178106   -1.72559857931602   -1.85932322029106
S          -6.89375537389050   -2.84862938099898   -2.66260328686991
F          -9.61259844365827   -4.38948068643215   -2.94479534397839
C          -6.41872485541098   -3.57577067437041   -1.20252004736743
C          -7.00406602447609   -2.97048788195082   -0.11360374492054
C          -6.74118558951511   -3.21230063841967    1.25292562310128
C          -7.30098916390788   -2.40044373593326    2.18890545060504
C          -8.22227703879886   -1.37611779072844    1.84812529634106
C          -8.80408011347989   -0.62628353829133    2.93580557164270
C         -10.08772758109804   -0.15959657865539    3.10350921968779
C         -10.23671414106574    0.55144412532820    4.29862716975604
C          -9.06617571285654    0.64660001141445    5.05905386462553
S          -7.76807394746516   -0.19836397459240    4.29458104901867
C          -9.19960918511978    1.37694372631511    6.23771928212065
C         -10.48731200366819    1.85417032639059    6.40729200177709
S         -11.54094229678716    1.37365633747918    5.07787684772409
C         -11.02775308242674    2.63450632875577    7.45330683593382
C         -10.30956723430712    3.19029644442902    8.47220595851587
C         -10.88970827155489    3.95934468814243    9.49237722318213
C         -10.18821966032045    4.59543014043335   10.48500147498553
C         -10.72709505165843    5.38883272853557   11.52937918726797
C          -9.79869173237428    5.93422256436742   12.35823529981284
C          -8.46203130743676    5.60892196175917   12.01886823224177
S          -8.43576358030876    4.56381741319004   10.60994035054068
C          -7.30808211685670    6.02937458265967   12.63679609811192
C          -7.19450288465086    6.89445189942188   13.76174711404995
C          -5.92340612804535    7.15728992305321   14.13756585211687
C          -4.92249269425747    6.51546033792697   13.33407467029898
S          -5.71780912501074    5.54803407508254   12.08161331625639
C          -3.59125362586618    6.59814654842533   13.45980604889884
H         -14.62516330592461   -6.22337145773899  -11.60313564902457
H         -10.79614895912905   -8.69868599688021   -9.52785373612891
H         -14.29657937111405   -8.01634578165813  -13.73486492080473
H         -12.11100119124904   -4.55868035772909   -6.06206975279170
H         -14.48059161569727   -3.19481934487276   -7.44339796242634
H         -15.17346171639297   -1.02798529780587   -6.10167044336867
H         -14.43906126382720    0.36537707704166   -4.05584830629864
H         -13.10975574353600    1.36379737555512   -2.27626781595041
H         -11.38324505509284    1.83215005479198   -0.42170043845708
H          -9.55233023812081    0.72147970084223    0.86284812205779
H          -8.39296958346756   -0.97994779849401   -2.43953209557379
H          -9.85060629848599   -4.94941629607196   -3.69375180605115
H          -5.71828194340421   -4.38667472480022   -1.19942975230127
H          -6.07764695556820   -4.01582213993815    1.53335219096405
H          -7.08472787857957   -2.55351227377318    3.23606219510754
H         -10.89258670522749   -0.37121297492145    2.42378771841690
H          -8.40402082475429    1.54478837506790    6.93870535447339
H         -12.09548683631898    2.80886526597930    7.41522105076703
H          -9.23676178871379    3.05650925823310    8.50742044752871
H         -11.96582598886688    4.07419846467457    9.49595989572084
H         -11.78895480948393    5.52988139974040   11.62867830844838
H         -10.03288760138676    6.56238049716182   13.19854440392660
H          -8.06526308302305    7.29481511564915   14.24957871334950
H          -5.64249848372210    7.79054132180762   14.96077053713019
H          -3.14730940588805    7.20130820687011   14.23079458175270
H          -2.92808683557563    6.07272616966580   12.79806676913828
