111
 SCF done       -216.491056460838          0.000819926861
C          -2.68266396754783   -0.83415180505389    0.91497687253376
C          -2.91054544616147   -1.93915516896306    0.13822513100714
C          -2.15418965132144   -3.12814697588178    0.21421881350096
N          -1.58219193915127   -4.12317496106242    0.23338421455705
C          -3.90035632701997   -2.04998156472480   -0.86208102063501
N          -4.66186569169157   -2.21876483892208   -1.70490571893989
C          -1.60275805266093   -0.68914780475390    1.88095607620573
C          -1.61810254219453    0.63435309220766    2.38270304874186
C          -0.71092967653152    1.08714991252396    3.31005367239192
C           0.26184462684682    0.19033297189328    3.76240812742955
C           0.26690422124804   -1.13332127488309    3.25950997397573
C          -0.65210256498439   -1.59116104670499    2.32440756830292
S           1.54987403342693   -2.07637592381818    3.95517345647432
C           2.05775096898468   -0.69834521034214    4.89537764572071
C           1.30567291673418    0.41128329050310    4.70191161764073
Br          3.53224598474106   -0.85545228918215    6.04340516196137
C          -2.72374690881531    1.39161905832392    1.76271965500338
O          -3.01671483172150    2.54129738325111    2.00606285606136
C          -3.41496211283294    0.42464623319139    0.86752202771009
C          -4.62632036161560    0.59141623631714    0.27151829623795
C          -5.39235122569826    1.79409065739022    0.09918619665402
C          -4.80193547681727    3.05711064053581   -0.06508681743148
C          -5.60744144518419    4.15829792885953   -0.21491945662793
C          -7.00739835488287    4.03033189863256   -0.22273655870186
C          -7.60250976326704    2.77949896760582   -0.10532375610505
C          -6.79257833908503    1.67521829697150    0.03884890981491
C          -7.58701648420637    5.34704469472893   -0.35784215833055
C          -6.54547728245640    6.29222255287547   -0.41975325835300
C          -5.20167020943064    5.60115180895373   -0.42317713086994
C          -4.26964156883539    6.11337416000071    0.68428206042459
C          -4.82569102049371    5.85259327845725    2.07924632284034
C          -4.53300545938458    5.68241811067826   -1.81745029515376
C          -4.19298521890159    7.08405510069343   -2.30593467371212
C          -6.83838953504099    7.63457370680615   -0.44710430095939
C          -8.17693927761994    8.05640628832636   -0.49435239515195
C          -9.20016476737518    7.09899126645284   -0.47055009938091
C          -8.91494070263928    5.75259941305494   -0.38428240262501
C          -8.43996713601650    9.47542076214384   -0.56339048404254
C          -9.59933574964031   10.03437626203530   -0.95698156927124
C          -9.87526356782905   11.43986679983208   -1.04123320260055
C         -11.11482763279086   11.89957131652443   -1.48752871419478
C         -12.18194797875940   11.09528383869269   -1.88856629941557
N         -13.05287117516991   10.42279514846542   -2.21786739282450
S         -11.24463334677075   13.62289828119508   -1.52679141507931
C          -9.64650164837769   13.77402864965832   -0.88847067907903
C          -9.03275033833204   12.53895810189631   -0.70701395607080
C          -7.66608693656976   12.44927219688023   -0.38725370023169
N          -6.52901551249398   12.39718632443165   -0.23008078783783
C          -9.11631936865099   15.07136324306039   -0.59868094765550
C          -8.24734752917151   15.29947970144179    0.48897641617065
C          -7.71698120762406   16.60787738926220    0.76889193149326
N          -6.80184210851616   16.74555181934670    1.74174570962015
C          -6.50892035219317   15.72735464219361    2.50757722997323
C          -7.19361486390334   14.47476865760027    2.34784089060242
N          -8.00091555986918   14.29073891524605    1.33788852679167
C          -6.98587818569764   13.42144417217218    3.27336183081089
N          -6.79077274714641   12.59141696346623    4.03731531547896
C          -5.54708618712142   15.92290093342444    3.53032574697184
N          -4.80142752258227   16.11353170908342    4.37829618773778
C          -8.12122165890603   17.75267228645225    0.04608356313711
C          -8.99289539991141   17.52222968192809   -1.03041773261290
C          -9.49796374343639   16.20434754960383   -1.33477058076766
N         -10.34515640477154   16.22653742403796   -2.36815127051826
S         -10.49569299100224   17.73413956072621   -2.88364600350508
N          -9.50343059865463   18.44362180368940   -1.85222831341537
C          -7.66081827745689   19.06938177366265    0.36800093563153
C          -7.32196142441674   19.53271377830026    1.59303877315816
C          -7.51712520083106   18.97645976482401    2.92144074609769
C          -8.58634009621661   18.23149442413046    3.34419977700588
C          -8.76293888792620   17.79654675025951    4.67419918349567
N          -8.94545209157999   17.39567099126673    5.73364359617846
C          -9.62542542946773   17.80230747995088    2.49644199284384
N         -10.48272534170257   17.41085983964710    1.83958887857334
C          -6.49917623351142   19.56174844338960    3.77886500314450
C          -5.88081785582433   20.63704214186506    3.08723772155842
C          -6.45082252495157   20.74138334052066    1.73083351623330
O          -6.23043782122190   21.57240988711748    0.88488136839882
C          -4.88920460859621   21.40026093491747    3.65558285691468
C          -4.48148222836194   21.07883297158367    4.95466226090906
C          -5.09242503530002   19.98980739034597    5.62665102820543
C          -6.10297988347932   19.22517590835290    5.05913459236774
S          -4.42374118730762   19.75660852155593    7.20920125997716
C          -3.35395111389805   21.11037465116780    6.96042030693473
C          -3.48552962529615   21.70611010593849    5.75004239882112
Br         -2.16467702953112   21.61190560238188    8.31732609890529
H          -0.74985744172529    2.10259399875439    3.67217937711601
H          -0.60970375694068   -2.60970073716361    1.97680228260764
H           1.47816542460870    1.34762066220387    5.20039456369971
H          -5.11824769377005   -0.30146295304425   -0.09769325148059
H          -3.72974213131755    3.15215729149011   -0.09029851942308
H          -8.67643753289971    2.67382868575486   -0.13037272904001
H          -7.23543253176533    0.69454064039494    0.13672657415583
H          -4.11876671903573    7.18557691039879    0.55257482669247
H          -3.30149920363834    5.61904825098552    0.58844660675131
H          -5.82455686680566    6.27220591184853    2.18207981198207
H          -4.18216976661289    6.31047951335355    2.82640609141487
H          -4.87115743783465    4.78490270688966    2.27801227028698
H          -5.20430449033610    5.21159079186376   -2.54112534953943
H          -3.61894277880854    5.08596665664174   -1.77943136213558
H          -5.09267461064922    7.67785944268318   -2.44273484401490
H          -3.68559381116769    7.01585925126401   -3.26595589952733
H          -3.53242836657127    7.59631436538782   -1.61195715861536
H          -6.05640846949353    8.37909433481098   -0.43711870070018
H         -10.23042974990204    7.41924276178172   -0.48304555450159
H          -9.71261814543071    5.02711819581639   -0.33245989201972
H          -7.60556682352648   10.11067318954103   -0.30182103557669
H         -10.42687086082681    9.40629160755142   -1.26021882301762
H          -7.52823827128640   19.74802925515956   -0.46728685336756
H          -4.43870341553107   22.21776084489676    3.11486500802269
H          -6.53025958810878   18.39690369447381    5.59986788876332
H          -2.90426215907159   22.55188780524202    5.43109441434263
