98
 SCF done       -207.707603821450          0.000932117792
C          -1.97326013302635   -1.87857996784849    1.14681321216834
C          -1.93888711950308   -3.07545858142386    1.81207168637387
C          -0.76153895512219   -3.81079299734736    2.06062523577055
N           0.16417285145883   -4.44759754403343    2.29480617607490
C          -3.08017313326309   -3.70418966129102    2.35064273755704
N          -3.98741406220162   -4.24010769431730    2.80582367006020
C          -0.82491352297439   -1.16946890814932    0.59066175209597
C          -1.26483597321717    0.07134199125130    0.05781521184867
C          -0.41501863570799    0.95758970308788   -0.55994575608551
C           0.93034552939192    0.59978373088605   -0.66965316451032
C           1.36453253205642   -0.63460907460804   -0.12782251936546
C           0.50657562742520   -1.52769259901231    0.50533379452549
S           3.06545720014919   -0.87048073626839   -0.37554033184798
C           3.16510374950818    0.66486142053244   -1.20110191995425
C           1.98610405787536    1.32555072646721   -1.28394793678410
Br          4.81598305999040    1.24445366847036   -1.86839079137500
C          -2.70776449318169    0.18103762739642    0.24576378541136
O          -3.43124693782589    1.12406662357857   -0.07763410115317
C          -3.14306002678681   -1.06832591232145    0.88131515590790
C          -4.47336045542222   -1.35301285343282    1.06860339572908
N          -5.38527430142727   -0.45050949029279    0.68258065974145
C          -6.73399976334690   -0.51963461669834    0.68564982616490
S          -7.62379656403614   -1.77428778565200    1.47735122101484
C          -9.10106787485591   -1.00283750194868    0.98099935632091
N         -10.30841270834603   -1.61267165514808    1.35703636793957
O         -11.34216310638447   -1.07361324196783    1.01389643336780
O         -10.22179948614498   -2.64109722871126    2.00239856061998
C          -8.91704100106184    0.13951153808169    0.25201623279134
C          -7.55384978494285    0.44116375921023    0.05991487231307
C          -6.99699227163100    1.51566958085006   -0.69680611042511
C          -7.65137945629026    2.55663790114356   -1.26447115266986
C          -6.98494655479549    3.57380243805681   -2.00887436200389
C          -5.66059403370301    3.47830240528996   -2.50918177541551
C          -4.96901171058655    4.61937650699005   -3.05507064623000
N          -3.66099421923284    4.53544586640345   -3.30567021633550
C          -3.03379018974675    3.39104341728014   -3.14435246613769
C          -3.77642616994548    2.20713727410990   -2.84090642208729
N          -5.04304140823327    2.28747128456333   -2.52013014187937
C          -3.14548019343702    0.94012447821549   -2.88099579634767
N          -2.58999366747525   -0.06230849701017   -2.90009582363606
C          -1.62659568155807    3.32913662938694   -3.25194408215037
N          -0.48502451101257    3.21905243064674   -3.27532103708060
C          -5.61461555484488    5.87962053315583   -3.27276600854548
C          -6.97622768365042    5.92714881990682   -2.87910577504298
C          -7.63528005994359    4.80301367498979   -2.26036706740612
N          -8.90287775433695    5.08166274647052   -1.95415041497231
S          -9.24375124464917    6.58263493445178   -2.40322790572632
N          -7.79698304551325    6.96395926933645   -3.00147507548252
C          -4.86267360305546    6.92584744243265   -3.81922191727149
C          -5.13524968654731    8.27062371860438   -3.97409635160877
C          -4.19832900973640    9.17475547007066   -4.53441900492974
C          -4.58362752981379   10.48249986821993   -4.50187498994657
C          -5.84442525018256   10.66797071614953   -3.90147075930462
S          -6.55289940369848    9.13996104875642   -3.44434712546939
C          -6.49311998095553   11.86789726682355   -3.63450609873902
C          -6.07295065989689   13.17532792200887   -3.94965498553848
C          -6.91868139208821   14.14691192466110   -3.49526597625535
C          -8.04169453734053   13.64933809124565   -2.79857720539136
S          -7.99775627578760   11.90285768683083   -2.75284971662117
C          -9.02296566669724   14.39609574900212   -2.17505638470007
C         -10.09879172559809   13.83393392196868   -1.49366372325162
C         -11.05059512041688   14.47866239260986   -0.73700056323980
C         -11.10878791844806   15.80989833437592   -0.19663219633860
C         -10.04261665001728   16.61638614417625    0.12846208256340
C         -10.17328786664661   17.89810687088127    0.69826288139794
N         -10.22200874003210   18.95659949554834    1.14142712605533
C          -8.69309060043645   16.22086900295747    0.04348529089736
N          -7.58008121335926   15.93746097481586    0.04116540631610
C         -12.50030819886791   16.07056823098986    0.16971256705630
C         -13.23343690535947   14.86225968355908    0.05356033127053
C         -12.33967281934526   13.80196841011107   -0.45561639504609
O         -12.60315117679189   12.63483270824100   -0.64586124977688
C         -14.56670981611796   14.77530205779008    0.36982094087634
C         -15.21064367334674   15.93740172756611    0.80999626444691
C         -14.47351086662541   17.14110685632581    0.90804253455534
C         -13.12109353723605   17.22753067022357    0.59664100328243
S         -15.46574841748072   18.45546294036601    1.46040039842349
C         -16.83841922965700   17.38418453864674    1.55580050179760
C         -16.56974780026679   16.10799667811080    1.19105748824825
Br        -18.49592451981589   18.05304901227120    2.12416472664951
H          -0.76932003764775    1.89362861377183   -0.96032176198248
H           0.88331616579270   -2.45910287024210    0.89442983203341
H           1.85216792259569    2.27503339149206   -1.76963872618349
H          -4.82746128080863   -2.28495563211337    1.48986841762775
H          -4.94942262085825    0.40287941648662    0.27953632818396
H          -9.73626884931692    0.71956899787620   -0.13123649012202
H          -5.92800557387646    1.48792649421106   -0.84191396856565
H          -8.71052253626506    2.71171033989270   -1.11623907116665
H          -3.87002224809433    6.62534238486833   -4.13529527108312
H          -3.26091176328301    8.82924813415968   -4.93328125243140
H          -3.99033204975377   11.29852227407159   -4.87268482287386
H          -5.16798210232440   13.36884354464529   -4.49650637507061
H          -6.76177273951954   15.20258120335050   -3.62511947280440
H          -8.93273340825144   15.47037937390817   -2.24561716830445
H         -10.26552079349428   12.76782504653875   -1.61999323615203
H         -15.09823450763719   13.84085277534688    0.28144607857424
H         -12.60247855495329   18.16789895255386    0.68335656708738
H         -17.29854638865750   15.31820556242887    1.18985494420367
