93
 SCF done       -188.174669502288          0.000733953075
C         -11.43928373743663   -1.20582036948001   -0.37617248131035
C         -10.68358812033731   -2.25123783274722   -0.85113040726765
C         -10.96313023037658   -3.60925485607629   -0.59946620322395
N         -11.13064802677992   -4.73309355413612   -0.43061212094483
C          -9.52510066081388   -2.13942120891540   -1.64572937085285
N          -8.57542314517142   -2.14852694970698   -2.29284342329088
C         -12.63127231419353   -1.34785134508560    0.45715251706774
C         -13.12390886597825   -0.05808475893098    0.76847026622007
C         -14.24101232610316    0.14296386798510    1.54073140079986
C         -14.90768916967932   -0.98515191698988    2.03123716757493
C         -14.40896796730505   -2.26978384618981    1.71504910078110
C         -13.27787122374223   -2.47276572789561    0.93356229161990
S         -15.38271361463893   -3.52536803014363    2.42109620211820
C         -16.43169496041923   -2.32141258788391    3.12113099777918
C         -16.07418527689385   -1.04590294942596    2.84276355355354
Br        -17.90143254151406   -2.86262092701673    4.15449136830289
C         -12.25752839252862    0.96166839384690    0.13757495765728
O         -12.40183562189733    2.16530051530591    0.21504002192637
C         -11.21313144245476    0.20599640918143   -0.58499008382463
C         -10.20916021247413    0.77339536544456   -1.33373655700874
C         -10.00707401651691    2.14993007297574   -1.51111096056583
C          -8.97983793138906    2.62329617074708   -2.28123810565298
C          -8.70410878702378    3.98140616355203   -2.49943739816464
O          -9.44660398543345    4.97721101248020   -1.94992559672334
C          -8.94000947100022    6.17339929973981   -2.34638063405364
C          -7.82390783768742    5.94264161967452   -3.15858441164264
C          -7.67598250072030    4.55212062236638   -3.26132898105526
O          -6.73626464019430    3.88076035936524   -3.94799709039582
O          -6.96542294747318    6.81498281753854   -3.75239832039597
C          -9.57559111764873    7.34469043254586   -1.87883717695860
C          -9.34037961027956    8.62031011273786   -2.30761132263053
C          -9.95595758720189    9.79301683808727   -1.81706680120025
C         -10.74372157594780    9.87176485739756   -0.70019267389572
C         -11.37856233008284   11.01417591458803   -0.18881185264060
S         -11.89446378163458   10.97225468299888    1.47251205644902
C         -12.38776173196787   12.63975173177724    1.48575911747017
C         -12.26656262374185   13.18578980267750    0.17999033979866
C         -11.69463158807650   12.27102396194570   -0.75681722586191
C         -11.58856033223875   12.63684486295461   -2.10931076748510
C         -12.01267563057425   13.87492385398733   -2.50873239883799
F         -11.93539252209501   14.21736455066095   -3.80395074966988
C         -12.58385827462476   14.76862268369282   -1.58813215719868
F         -13.03861091119815   15.95981557116481   -2.02145596806125
C         -12.72623394839179   14.43432524322954   -0.26877430063083
C         -12.79492307837624   13.19965483663849    2.69992708565419
C         -12.88645630887842   14.54824834487908    2.96168354471658
C         -13.34753661660759   15.12625735688675    4.13892672230886
C         -13.42225209975787   16.50484449939171    4.27215593218126
C         -13.87192694062258   17.28631070504181    5.35451689739992
C         -13.84135581892015   18.63812146497153    5.12361966863618
C         -13.36516120639241   18.97840499196177    3.84627826578679
S         -12.94864388366302   17.54385220255587    2.94678116979872
C         -13.18707574187112   20.20164030021074    3.21082638856796
C         -13.41151626704018   21.52730470159978    3.62513685283417
C         -13.10092185866555   22.45553819460751    2.67077470668833
C         -12.61142008911226   21.90689642249038    1.45765419400379
S         -12.56766554852477   20.16490610858539    1.58193523613849
C         -12.24056845163629   22.59908497240462    0.32913826256771
C         -11.73702974339104   22.05624485553049   -0.86957859332278
S         -11.47719744382362   23.11349561951166   -2.25424583573456
C         -10.90216827033066   21.86134626680125   -3.27905623433740
C         -10.89419496818602   20.66165197889917   -2.60690072087822
C         -11.36220901165132   20.77813506807482   -1.26004417738689
O         -11.30525138888071   19.57951340013085   -0.64348638723207
C         -10.82412440282942   18.70701079554414   -1.56445946749461
N         -10.66317728326311   17.36565920886502   -1.15176192228914
O         -10.15528785843731   16.59869721608840   -1.94938065064144
O         -11.02627629722499   17.06382863107184   -0.03294116045231
C         -10.55253083484548   19.29039720485755   -2.77334141723403
H         -14.59089664721996    1.13969612718137    1.75959547690589
H         -12.94008073935360   -3.47319941882304    0.72170539203993
H         -16.60896069205707   -0.18214698537947    3.19351320316346
H          -9.50863157817355    0.11726559486048   -1.83435237359999
H         -10.67552862203551    2.84603018810007   -1.02776817616140
H          -8.30558913686415    1.93648593949537   -2.77531361367260
H          -6.15279841893329    4.52238874818158   -4.37550586112006
H          -7.10718969191078    7.70283966759979   -3.40688687342674
H         -10.33629979100842    7.16010463352104   -1.13480298825649
H          -8.65815472805181    8.77900925121713   -3.13310306581129
H          -9.72325407353573   10.70066030143319   -2.35241503654528
H         -10.84988443969753    8.98595496883123   -0.08761943960266
H         -11.22364247897782   11.94967899532805   -2.85227450632336
H         -13.21929124064076   15.13252783829669    0.38399418152301
H         -13.00071324837856   12.50251331772513    3.50309881993354
H         -12.53630375891095   15.23563808642605    2.20557203205225
H         -13.67998961168450   14.50588474133666    4.95973770902792
H         -14.20814075046975   16.83906312207198    6.27367725725379
H         -14.14995158390722   19.38218653018670    5.83655217764390
H         -13.79057733870824   21.76648531038249    4.60297465391547
H         -13.20557081371322   23.51827122078240    2.80145771067131
H         -12.35734282787313   23.67410634704381    0.34572524198080
H         -10.61058890684756   22.07940052071710   -4.28483937393185
H         -10.16918393436417   18.79700867569024   -3.64208672551240
