102
 SCF done       -190.656895077210          0.000955050535
C         -10.70860551054808   -0.45385500242982   -1.13387071723459
C         -10.66699135499131   -1.73056085064662   -0.62598360511377
C         -11.21337710380530   -2.85616179607299   -1.27479933384027
N         -11.64070360235136   -3.81172860087376   -1.74740426642351
C         -10.05505322265213   -2.10412185540506    0.58649112774977
N          -9.56512714819338   -2.48389416047266    1.55513575592674
C         -11.29951046001421   -0.07403942764111   -2.41565251604553
C         -11.08007813950024    1.31114892159754   -2.61192268754894
C         -11.56095272521478    2.00006072052059   -3.69616395428191
C         -12.27520585100969    1.27252651972681   -4.65177677863810
C         -12.45119227763352   -0.11950763480311   -4.48111364473412
C         -11.98206748332647   -0.80856875082030   -3.36727240890166
S         -13.32056920509833   -0.81216611078767   -5.81821629979496
C         -13.44001599878159    0.76133040526758   -6.56709589705118
C         -12.85986269841027    1.75407269726616   -5.85404679244751
Br        -14.30512305619331    0.96413962889222   -8.22097483668257
C         -10.27669518587750    1.83532406065834   -1.49811118094853
O          -9.81159378623776    2.96114001602514   -1.43300682717658
C         -10.14463692206599    0.73853072718734   -0.53524831520195
C          -9.67468248018850    0.84553722971311    0.75713372779543
C          -9.08830162555263    1.93423119361800    1.40659936641004
S          -8.65826416204554    3.43558913312262    0.63366190581603
C          -8.01424782375774    4.07625075963364    2.11141257018018
C          -8.15903770853291    3.15790318876519    3.17056973111712
C          -8.73390682285559    1.96349366095019    2.77405546525994
C          -8.98278365083802    0.83216565634208    3.72219523401748
C          -8.20020891899969    1.02086578419371    5.01928821049300
C          -8.38350208964884    2.44394648456340    5.55206688886465
O          -7.88281769672204    2.59919404767536    6.85790072953679
C          -7.73227142139938    3.43428848561920    4.57710289483801
C          -7.46106407258684    5.36221807119669    2.16468912922687
C          -7.33992512425436    6.22102396532580    1.09218851023467
C          -6.79378014852072    7.53027170665280    1.10214228877731
C          -6.79346717453309    8.15271805268741   -0.11196964240238
C          -7.33529721895884    7.36121971838835   -1.14727999420149
S          -7.85826551675146    5.81298317921919   -0.52401714574036
C          -7.47639355784439    7.60935620112317   -2.50103076662833
C          -7.10461990984927    8.72907273970930   -3.27634376026158
C          -7.35329301762825    8.58075319616728   -4.60733411879446
C          -7.91968194361126    7.32647573466547   -4.96624622490140
S          -8.18000600621862    6.37342009474054   -3.51843523199220
C          -8.29844801705734    6.95625484003344   -6.23165904587225
C          -8.83341668335210    5.72638751914223   -6.68203140217010
S         -10.02066072621379    5.83154000775988   -7.96574028241861
C         -10.28669476366192    4.10765070076767   -7.94240044917734
C          -9.42715725942829    3.49762817328622   -7.02858766501032
C          -8.61518642919788    4.39653505161771   -6.32745951243343
C          -7.53141687939391    3.86263866816489   -5.44643864109749
C          -8.00481297253489    2.57794874849471   -4.77433053248104
C          -8.34347178153546    1.53110996027541   -5.83701667162010
O          -8.83024324457694    0.33201618834240   -5.26544864023981
C          -9.44623678058970    2.02785417419775   -6.77691284578422
C         -11.16314188018633    3.45039602118960   -8.82701905490967
C         -12.19358907972502    3.95362896908368   -9.56849752733512
C         -12.94812573924997    5.17885929177566   -9.47308228691630
C         -13.22603840800728    5.86697866774553   -8.31654541237710
C         -14.02538199389590    7.02314602840110   -8.25628742127543
N         -14.65266869453664    7.98011353488623   -8.16038987754206
C         -12.82536666433238    5.39632824816364   -7.05366553498428
N         -12.57095729747742    4.97680175340228   -6.01421839840854
C         -13.60891144533141    5.38483264102963  -10.75643701636843
C         -13.46269524858993    4.20776272334858  -11.53340478929185
C         -12.63295136114426    3.23400840584626  -10.79197038137653
O         -12.31963370754956    2.11562963448389  -11.12934220867138
C         -14.02233040615529    4.07721468913393  -12.78042473442655
C         -14.74765767209910    5.16159422954417  -13.28748193092590
C         -14.87437432218685    6.33605786203907  -12.50841713279682
C         -14.31791530256706    6.46581955226584  -11.24161487780338
S         -15.79991320664462    7.55377451503914  -13.33267054474637
C         -16.00546750877581    6.48195020500911  -14.69282551356821
C         -15.41154273614608    5.27491620354115  -14.54010231549568
Br        -16.98206170465122    7.06019963550068  -16.18585965458884
H         -11.40309412081906    3.06140800990877   -3.81162048709593
H         -12.15669683606698   -1.86713705247712   -3.27111710551482
H         -12.84396278181232    2.79013227527674   -6.14316171930149
H          -9.79418221134003   -0.02915689014763    1.38265142212729
H          -8.70643975281645   -0.11993953727144    3.26397971882309
H         -10.05374740272089    0.78731429411964    3.94465686476009
H          -7.13663634077162    0.84114684366151    4.83856820559664
H          -8.54392756845622    0.30494379977116    5.76702322017448
H          -9.45270800050388    2.66683855555091    5.63689978398432
H          -6.95192755209198    2.34683796052663    6.86687502432966
H          -6.64164514738839    3.34395028835577    4.65252328163448
H          -7.99595841719058    4.45438569140287    4.86393558800686
H          -7.09422868353958    5.71493663483819    3.11939015375067
H          -6.41609548740350    7.97134112140174    2.00804852204715
H          -6.41818330160714    9.14558646617734   -0.28504787849942
H          -6.66347420714478    9.60430322715542   -2.83403551799857
H          -7.13308334338561    9.32457760963790   -5.35261221647178
H          -8.28788764895249    7.74805358554481   -6.97238826986136
H          -7.21939296756133    4.58402810840268   -4.69728664927859
H          -6.65946093393346    3.64457818828911   -6.07437976850397
H          -8.88612460245358    2.78128226245565   -4.16468576192048
H          -7.22144157546974    2.19333679903090   -4.11680732330333
H          -7.43193215839090    1.31806254610358   -6.42154434140801
H          -8.16573732826831   -0.02149463737565   -4.66470276009880
H         -10.39893921793943    1.76471398581469   -6.30986178408805
H          -9.39447879832692    1.47729672714428   -7.71933803793048
H         -10.93531789587718    2.40675259723794   -9.02455257204372
H         -13.90739379404617    3.16727979700325  -13.34804227096375
H         -14.43561010734714    7.37941735022560  -10.68213642399609
H         -15.43863207668211    4.49485875734488  -15.27889518438432
