88
 SCF done       -179.105799715396          0.000858317730
C          -7.64160929847798   -0.16469904879042    2.09964713630320
C          -6.38653162009946   -0.69383084103887    1.91828169874488
C          -6.00164715017456   -1.98317677881410    2.33750571048805
N          -5.62580402600573   -3.02473999964237    2.64262628527103
C          -5.31281388950029   -0.04279545391729    1.27896576513039
N          -4.39052136998273    0.41414762156540    0.76782543268776
C          -8.75081872240027   -0.82993187541229    2.77497289414854
C          -9.88383914088543    0.01936341411907    2.74080163317108
C         -11.08787669147209   -0.32626160041522    3.30260042070617
C         -11.17629493860067   -1.56703358388318    3.94286820729925
C         -10.03991339473165   -2.40973770184737    3.97247108835001
C          -8.82430937085853   -2.06347281063435    3.39521619339316
S         -10.36846938697441   -3.89588865902127    4.81111299782496
C         -12.00449699484819   -3.37080004972721    5.10835872767074
C         -12.29257071765392   -2.14706036689901    4.60578911427564
Br        -13.17834865434054   -4.49021446859237    6.04896094489977
C          -9.54317959677428    1.26241545877677    2.02443870107959
O         -10.31587956718428    2.11506836407147    1.64984985163420
C          -8.09163272290738    1.15176498948880    1.70788577416013
C          -7.37679931629483    2.10591369546795    1.03871367679572
C          -7.77295367504684    3.45574000415072    0.93194647478522
O          -7.26047435601779    4.22348523944245   -0.07332161139739
C          -8.55592193548105    4.26845083674627    1.73956904143226
C          -9.29255735432804    4.32434923523490    3.01527855721898
O          -9.45407996194360    3.49996042278282    3.87541460478154
N          -9.73736396964401    5.63936292350222    3.07321556126989
C          -9.32267998066389    6.45714394111725    2.01930657252564
O          -9.58662401286168    7.62582451480708    1.90640623668867
C          -8.53406326725681    5.55615346263298    1.17864548705052
C          -7.72368497310628    5.49903725535376    0.04296342089750
C          -7.37069734870580    6.49695456758172   -0.87331965628247
C          -6.50221878162308    6.28774148068259   -1.91984018530867
C          -6.14365166403105    7.26554715196599   -2.83925757064328
C          -5.24108088027894    7.06867417986722   -3.87242941962898
C          -4.83886755150112    8.00787631911390   -4.83901839730937
C          -3.91436777797117    7.53081806328347   -5.73218206964085
C          -3.54669095165802    6.19685140048596   -5.50391316128651
S          -4.40988893565401    5.55014422856459   -4.13337724722820
C          -2.61558070109483    5.43274120472040   -6.21122203139272
C          -1.84812160355021    5.81891144239922   -7.31701250631103
C          -0.99756562790730    4.83674356116800   -7.76577530142716
C          -1.06389653698081    3.64586279944003   -7.03329055840542
S          -2.24677303353207    3.79065350007777   -5.75487126208626
C          -0.30269047559917    2.49421623568768   -7.23819632038014
C          -0.39609979072936    1.34975128363034   -6.48570955930976
C           0.39430900182960    0.21429585226800   -6.66578556624751
C           0.33754842665760   -0.97260212530819   -5.92348982171379
C           1.25479805989169   -1.91900280180458   -6.30826868995146
C           2.07272224881953   -1.50959834881630   -7.37128807310156
S           1.64479510436286    0.10502375290196   -7.88166028524516
C           3.10500073235163   -2.21876174453490   -7.97970162544022
C           3.56138216019546   -3.51243202001699   -7.66614672489092
C           4.60697789108217   -3.92977947599557   -8.43847142483991
C           5.02815297076714   -2.98422454573413   -9.40246272615062
S           4.03913774543631   -1.54047251254942   -9.29114901843718
C           6.05695242231563   -3.15256940684346  -10.29700843433417
C           6.50799857264092   -2.24380376968650  -11.26390891902091
S           5.83943213030890   -0.64434533512012  -11.55767405569519
C           6.93767104553414   -0.28139661946316  -12.82805417026421
C           7.80005949712192   -1.33240058661642  -13.04222505097156
C           7.55107520432088   -2.42589337801940  -12.16129062253112
O           8.40813116660122   -3.43876839593681  -12.39278305374718
C           9.20247034323887   -3.00783318218629  -13.41064620149036
N          10.21400961453772   -3.88521525653697  -13.87098863525474
O          10.90959136804959   -3.47647668236619  -14.78155611782541
O          10.31597094739430   -4.96661055008160  -13.33414541984009
C           8.89317297083085   -1.74884269871756  -13.85114087911849
H         -11.93087025995251    0.34481584449287    3.25898387320851
H          -7.98912825091015   -2.74203803570183    3.44358461935801
H         -13.25156233680161   -1.67072455107812    4.69761576622479
H          -6.44308850032845    1.85652763403694    0.55276215708048
H         -10.29441719147487    5.98774674175150    3.84027900488813
H          -7.81776648827659    7.46631256492813   -0.71069378497763
H          -6.06675258996565    5.30244548988426   -2.03047543677846
H          -6.58604245473002    8.24900325650643   -2.75189714979957
H          -5.23558930937882    9.00740480800060   -4.85358756714260
H          -3.49652608515230    8.11219915219713   -6.53404535331288
H          -1.92622722063802    6.79537689636705   -7.75923895938108
H          -0.32913000718823    4.95171942484019   -8.60065571712523
H           0.41633073902307    2.52696135913985   -8.04750771068963
H          -1.12352955310547    1.31067334497895   -5.68461513929527
H          -0.36972838862915   -1.10623829311453   -5.12436972298737
H           1.35226522729743   -2.88474558421348   -5.84693369990764
H           3.11573393376564   -4.10165590410207   -6.88549658849804
H           5.08961554701328   -4.88611811988441   -8.34516501905505
H           6.59449947186104   -4.09143380894412  -10.26443149633448
H           6.88319529106435    0.66240486236114  -13.32899880625534
H           9.38689051969470   -1.21790281037172  -14.63817910592096
