116
 SCF done       -216.245514894089          0.000980635105
C         -18.43167401687436  -10.15486426034031    8.75662595573953
C         -17.06923155505270  -10.34403471403732    8.74958945112805
C         -16.42716569740982  -11.48163447994840    9.27775380073792
N         -15.83980673822022  -12.37992858687897    9.68722153454051
C         -16.11357926496317   -9.43868018870665    8.24651434643330
N         -15.26534027172275   -8.75752866502542    7.87606694509265
C         -19.40422416139496  -11.08169994786960    9.33285400542518
C         -20.69669838794713  -10.51631186052111    9.21115196676673
C         -21.82754301954807  -11.14474269376278    9.67041153202174
C         -21.67783386351428  -12.39681182280768   10.27706801512619
C         -20.38412056134547  -12.95656920880113   10.38919161071151
C         -19.23910762086526  -12.31820264142753    9.92661510253325
S         -20.42505054596641  -14.51039038481926   11.16684147597237
C         -22.15681314746398  -14.38723235941283   11.32838604993772
C         -22.67932423000891  -13.24304342669530   10.82774157335990
Br        -23.11129796598606  -15.78011930062448   12.14597341847385
C         -20.59369588939045   -9.20664408798572    8.53398858477989
O         -21.51596501765383   -8.45659296986630    8.27887347666239
C         -19.15791938732839   -9.02095363570357    8.24233426212238
C         -18.62867580889715   -7.93994533513766    7.56805027785131
C         -19.36479633775753   -6.85369482769077    7.10197055432309
C         -18.79280877667451   -5.78407460115525    6.44202151704762
C         -19.46783086757017   -4.63135147411535    5.97406098546775
C         -18.65236939028606   -3.71108153459946    5.38639327590245
C         -17.29371289483173   -4.09799498321621    5.35316066482285
S         -17.08316225294623   -5.66831818249816    6.08884065132908
C         -16.21869671660425   -3.38642960960997    4.84881368029250
C         -16.23431406735853   -2.08326811735442    4.29112422236165
C         -15.00406892772663   -1.63624235322358    3.93085734564567
C         -13.95602724066058   -2.57191180455838    4.16194780197175
S         -14.60364682311854   -4.04052668380782    4.85353172223191
C         -12.62488772220183   -2.32160044901032    3.95246938573461
C         -11.55496692063318   -3.22863121974663    4.08744900453437
O         -10.30037681112008   -2.69607974244803    4.21766213241383
C         -11.43440668821312   -4.61154927404225    4.08806267725959
C         -12.14292031923794   -5.87884578482290    3.89977137919688
O         -13.29543423335547   -6.11326188101291    3.63491852966423
N         -11.14786091144236   -6.84367223571971    4.03465101786187
C          -9.86049066691411   -6.35121873075535    4.22684106870362
O          -8.86614408508859   -7.01878388490787    4.33778226351554
C         -10.05258603970015   -4.89808922401387    4.23957351110430
C          -9.38777413504692   -3.69544568658295    4.31980133024272
C          -8.00075427208172   -3.41175832713950    4.51600523770881
C          -7.52794159446530   -2.17982402539858    4.74912897578241
C          -6.10809689122630   -1.88847136578466    4.96646939501334
C          -5.25970859302838   -1.77676527809402    3.91404732451094
S          -3.64040821778114   -1.37467995345799    4.34695471525838
C          -4.09153648651491   -1.37471391457370    6.02173710534797
C          -5.44665607570137   -1.67083504316951    6.22747855366352
C          -5.95047485048754   -1.73183775283029    7.54885118327418
C          -7.40743646635319   -2.06413867945523    7.74319495033135
C          -7.62039458720369   -3.56825507879561    7.92487638664281
C          -5.10657361053288   -1.52450361813350    8.62967936560493
C          -5.64117422403391   -1.59382082189492   10.03724256621432
C          -5.88328677899237   -0.19466692185224   10.60655716934809
C          -3.74161209764983   -1.19752564567196    8.41805960280896
C          -2.68783710856757   -0.85793869537535    9.34894063478705
C          -1.52740721373384   -0.53340033196326    8.70918333764292
S          -1.59336162701752   -0.64663055059292    6.99899926608504
C          -3.26155628771605   -1.11387300938867    7.10028476711155
C          -2.72412414193120   -0.83962277309192   10.79842821533102
C          -2.13037781236033    0.10898449339981   11.53917709221349
C          -2.10852047567313    0.11484460122287   12.96806697635256
S          -3.01795771516743   -1.03952015797711   13.89169397944687
C          -2.47907691762582   -0.34619546391842   15.39370330241128
C          -1.64051064307045    0.72426952427310   15.17143955253824
C          -1.42678076974270    0.97794850207032   13.80111159204122
C          -0.54029473386777    2.08557216091725   13.29701152493305
C           0.38842438431313    1.58000510906740   12.22853794627764
O           0.97445449395976    0.53679884198957   12.21940784219031
C           0.65179708564011    2.61629392048604   11.08884711145793
F          -0.48935790912880    3.11054252209977   10.57929430800778
F           1.34533286079142    3.66685181264746   11.55828336552205
F           1.34160829487464    2.09420199647330   10.07843215146344
C           0.34498240692008    2.62842599111686   14.43979319058906
C          -0.50890658668944    2.87753820707873   15.67678423472536
C          -1.00389365719059    1.55105959988297   16.24577256885261
C          -2.89501152125282   -0.89031651045434   16.65602285820034
C          -3.70127703030534   -1.93904113194349   16.80200523514646
H         -22.79814989413043  -10.68589437922060    9.56505990223977
H         -18.27647821954032  -12.78860099827452   10.03604589552318
H         -23.72690119251407  -13.00359741286844   10.84487842993821
H         -17.56209904686209   -7.92108799591896    7.38046903054807
H         -20.43184434389872   -6.83424121750193    7.27144940985541
H         -20.53093837921292   -4.52007510442715    6.09220577594020
H         -18.99055884546597   -2.77636812578815    4.97690631791808
H         -17.14178260405036   -1.51715443290604    4.18466357064933
H         -14.80556247708791   -0.67149676085891    3.49888390779145
H         -12.33988596450711   -1.31122904159711    3.69073594224263
H         -11.34675589958366   -7.83149175582982    3.96278448981583
H          -7.35257493505307   -4.27567667332004    4.51361680300872
H          -8.20599206017257   -1.33392047087599    4.73016867310456
H          -5.50661071576679   -1.89525993993253    2.87691629032798
H          -7.96591248834257   -1.73892767688255    6.86626977041402
H          -7.81513341348801   -1.52454267408027    8.59797682504924
H          -7.26630601778488   -4.10851458153192    7.05077882633468
H          -8.67797255665363   -3.78568943692624    8.05828511520078
H          -7.07832476623871   -3.93889640366671    8.79125533109030
H          -4.93928596805651   -2.13356839908044   10.66853715563106
H          -6.57267983775103   -2.15333668448405   10.06801682860191
H          -4.96695519457008    0.38961291734073   10.59937280685820
H          -6.24070311840712   -0.26199716871044   11.63151869104957
H          -6.62770929385706    0.33083978920011   10.01179704916753
H          -0.59456752825605   -0.27461446105346    9.17185210419606
H          -3.20828230652870   -1.65740401799912   11.31118212576049
H          -1.65276047500485    0.94720387500840   11.04830746108844
H          -1.15536589834205    2.90364807764468   12.90327895452683
H           0.83211853886593    3.54920482452117   14.11640864476964
H           1.11686332610400    1.89206425377927   14.67370466242882
H           0.08227889926219    3.40296041575731   16.42803986408406
H          -1.36026516806537    3.50838433085468   15.41290658672635
H          -1.71700601775860    1.73450973544820   17.05178761264912
H          -0.15965718135257    0.99807749074535   16.67020408578674
H          -2.49800917452178   -0.38728704555153   17.52761812921666
H          -4.10482129160253   -2.46005082723604   15.94958242266759
H          -3.98035114025492   -2.30625140015146   17.77341281615890
