103
 SCF done       -188.309503089498          0.000457500470
C          -5.95345921565854    0.26174992227272    3.46877111763609
C          -7.03560984812490   -0.27636627760209    4.11964609460010
C          -6.95844270831644   -0.96827773476069    5.34648849724616
N          -6.96924027214365   -1.54154880241208    6.34127203895252
C          -8.37677915782891   -0.21511958703291    3.69098700479616
N          -9.49537554890018   -0.19751179745796    3.42636867572757
C          -4.57876145329130    0.20867751868840    3.94755433626715
C          -3.74754072302618    0.88688649433655    3.02373235748836
C          -2.39275039897562    1.02422987321233    3.20365110402048
C          -1.82625572786920    0.45683675538728    4.34941375248086
C          -2.66282152509998   -0.22462384649661    5.26575487412713
C          -4.03328894764886   -0.35819713289378    5.08587159361427
S          -1.75898503928617   -0.85143506035818    6.61132949296165
C          -0.29090261536083   -0.19812917025845    5.93399363139896
C          -0.46560718540093    0.45565691197419    4.76096213693971
Br          1.33324535611542   -0.43991961857383    6.84017762710679
C          -4.56088046792257    1.37956732168822    1.89517420137452
O          -4.15236233617571    2.02148747169230    0.95091876742454
C          -5.95506430774779    0.97083187327005    2.19780891406707
C          -7.07686381280253    1.32217808237373    1.50907230380228
C          -7.18948423602847    1.91454120385289    0.21202266548714
C          -6.29400784473500    1.62091077223136   -0.78625270428808
S          -6.71682645742844    2.21869910915369   -2.32131826672063
C          -8.14941303379999    2.94567899559950   -1.65066511402163
C          -8.29564384072921    2.72354936723206   -0.27356427280702
C          -9.40423537060624    3.30265841485722    0.39771940431429
C          -9.50885749266176    3.20946402370484    1.89996091005845
C          -8.35794589128752    3.94316709575964    2.59198679080400
C         -10.36779180225195    3.99582155309007   -0.32878029975937
C         -11.61020185507138    4.54543730459774    0.32312503461916
C         -11.38062597789026    5.94167777015286    0.90565518885411
C         -10.21565493399135    4.19616381389139   -1.72101816401650
C         -11.08036229083855    4.84807884791194   -2.67573926731217
C         -10.59517120826301    4.75998210860041   -3.94271874386961
S          -9.08259604072274    3.94685595982688   -4.07912967465560
C          -9.09094736179707    3.66231809208913   -2.36811923227471
C         -12.33782824102271    5.54167124048041   -2.42108768254744
C         -13.47719345529685    5.21972539692451   -3.05431715637528
C         -14.73864501158583    5.86150721585336   -2.85504120100543
N         -15.89879683325539    5.26689225776645   -3.30428823155917
C         -16.95333154561931    6.04492658037347   -2.94215756170435
C         -18.33866274018458    6.13558437784493   -2.96158043823979
C         -18.65835667523686    7.34015136362906   -2.31470492339738
N         -17.48787008588726    7.96652553151876   -1.92212134833825
C         -16.43583233442311    7.18336610072620   -2.27441492943771
C         -15.04827762858686    7.06138464748848   -2.21381219502851
C         -19.92214868232027    7.90396902723607   -2.04591996377063
C         -21.11134124916265    7.25599486836501   -2.23529218562623
C         -22.36638812710093    7.80831376558261   -1.95972223274756
C         -23.54663321072805    7.10542113204532   -2.04046079177591
C         -24.85301952671682    7.58118086741917   -1.79009399440588
C         -25.82921559924195    6.63622771130264   -1.91113472637782
C         -25.34576242176459    5.35525467681024   -2.25429519384462
S         -23.60922687354563    5.39531888384115   -2.44862703482189
C         -26.06421758948105    4.18321564986480   -2.40190983722560
C         -27.45702930300627    3.99160158516229   -2.28153149136616
C         -27.85379522193896    2.70016469427264   -2.45126141428893
C         -26.79448786403832    1.79303830230466   -2.70897057421037
S         -25.26970100307975    2.65805734578782   -2.75146182041761
C         -26.91828753180444    0.43942185648863   -2.88103044231770
C         -25.88661777321233   -0.48858152748684   -3.10160206662855
S         -24.17899665022618   -0.09833152537827   -3.23411825875543
C         -23.69217043432702   -1.73339094433144   -3.46056425464132
C         -24.78330936428430   -2.56959682262010   -3.43941245409660
C         -26.00699366480837   -1.86162651152187   -3.23973878508542
O         -27.05871336175549   -2.70842162724773   -3.21984998387666
C         -26.52189630205195   -3.94507773218862   -3.40344152477991
N         -27.40351900035951   -5.04794252707826   -3.42506147892310
O         -26.89749546837453   -6.14384568963721   -3.59117834332741
O         -28.58922951546216   -4.83638120016075   -3.27991268144060
C         -25.15883854120814   -3.93646722604090   -3.54305566707344
H          -1.78948201800105    1.55129543460694    2.48118773580592
H          -4.62539659581172   -0.88421921303894    5.81549572325484
H           0.33069110565119    0.91895585838053    4.20763663053273
H          -8.01949758970839    1.09320259684283    1.97965271158436
H          -5.41776383983975    1.01112674835205   -0.69703609088522
H          -9.54971935926845    2.16738550955179    2.21875402563570
H         -10.43347074728978    3.66324823335762    2.24406693250809
H          -7.38867178715052    3.54664636277307    2.30184365332387
H          -8.45655949533810    3.85277754450164    3.67165520690928
H          -8.37845915600524    4.99909285384352    2.32992059259175
H         -11.96520080145539    3.87277023888439    1.10437397867950
H         -12.39949650700303    4.59554277104535   -0.42746988091202
H         -10.67137799692109    5.90959866764128    1.72851289532894
H         -12.31742512904598    6.35362887875904    1.27464963782662
H         -10.97911861579754    6.61001416804092    0.14701389833252
H         -11.04214683918018    5.17372711163477   -4.82585561345916
H         -12.32120770379494    6.36556902673934   -1.72343814029308
H         -13.47977967248541    4.36973797606182   -3.72628710829970
H         -15.93927487396179    4.37992503047707   -3.77583020658648
H         -19.04045651178765    5.44781774530558   -3.38682980194459
H         -17.45035136654113    8.83545718140553   -1.41810223724047
H         -14.34363820068411    7.74305229444900   -1.78251813532180
H         -19.93434774858176    8.90557509258417   -1.63308368939318
H         -21.09727665155837    6.23753305826449   -2.59820469592527
H         -22.42430742066048    8.84379744852052   -1.64964495990692
H         -25.03291801232992    8.60857219757904   -1.52542231533342
H         -26.87593540075898    6.82406682920030   -1.75251281014998
H         -28.12659311383006    4.80673656702163   -2.07309308246670
H         -28.87314305811630    2.36207983010312   -2.39283952826365
H         -27.91291062476667    0.01636716834298   -2.83093405554633
H         -22.65727950793902   -1.97030891717587   -3.59006947745099
H         -24.53736435599282   -4.79418166762641   -3.69538169971821
