99
 SCF done       -181.518560435444          0.000567549131
C          -7.48654083785271   14.74755031912726  -12.91515663222011
C          -7.32087015068856   16.10568424702246  -13.00290553125999
C          -7.24017540523685   16.81843972514726  -14.21641278447688
N          -7.16904173708197   17.44950059898499  -15.17268313635561
C          -7.21460228340514   16.96359661177756  -11.88929508362315
N          -7.12853681077628   17.69850088673396  -11.01152056628851
C          -7.60763609979807   13.82737358133941  -14.04361738071990
C          -7.77292261043273   12.50826854494094  -13.54649023011423
C          -7.91749265965104   11.41962283321502  -14.37234341523828
C          -7.89897620854485   11.63990182314613  -15.75369465173736
C          -7.73340247215575   12.95841742057691  -16.23975957185530
C          -7.58638881447753   14.06026924233089  -15.40441404435929
S          -7.74157742594564   13.00588920052004  -17.97528155944062
C          -7.96444952827470   11.27743667039670  -18.02590899155741
C          -8.02947581548511   10.69284233648215  -16.80555899822475
Br         -8.09336587135408   10.40795876522418  -19.68257091935257
C          -7.76231045183777   12.55222110240548  -12.07939778882882
O          -7.89443352149789   11.60623587614597  -11.30314561797390
C          -7.57835816039998   13.95466132222554  -11.71171865058451
C          -7.52399851359149   14.36088962316457  -10.39781877827949
N          -7.62666592510370   13.47117692904533   -9.40798329792319
C          -7.56805816933020   13.72708923258925   -8.07188983268442
S          -7.14704846283728   15.31596624184944   -7.49740227268648
C          -7.20374652061310   14.72014639469274   -5.87435166071495
N          -6.92899951489044   15.61845580435422   -4.83188230979525
O          -6.96755310991737   15.18936665332600   -3.69490031379279
O          -6.67026451222259   16.76469819539324   -5.14996759609376
C          -7.52782546537953   13.39414705947368   -5.78921735155327
C          -7.76220756761496   12.79643552462777   -7.04626547183890
C          -8.12943472184013   11.40770964487390   -7.14248760899601
C          -8.73759767769917   10.78154865605235   -8.16750865561581
N          -9.02717316636138    9.44643923334297   -8.20456343792866
C          -9.02088774820443    8.57206528003695   -7.11292302001739
C          -9.52203777943927    8.83788969537025   -5.87481441846183
S          -9.34852699048691    7.50835486002302   -4.80886313490350
C          -8.60017209886538    6.56404664386050   -6.03607155446358
C          -8.47913537669778    7.24157025628440   -7.21580749162057
N          -7.88833753443009    6.85520473022039   -8.40320561219300
C          -7.43119812171650    5.63401805574496   -8.82168847543455
C          -7.63345235513234    4.43062789123799   -8.25133242070870
C          -7.09455779129330    3.21242828605309   -8.78028447064151
C          -6.73626656718762    2.92464185724929  -10.06350207418770
C          -6.38031251736107    1.52638965678201  -10.14002818007885
C          -5.93888688994369    0.88854101928943  -11.30441040241739
N          -5.58644351371949    0.37737330211289  -12.27113155419462
C          -6.55524047138569    0.94249691344084   -8.90959609438871
C          -6.96067706499722    1.96388985839904   -7.99373180551915
C          -7.01334498002110    1.86403188947577   -6.62206093484444
C          -7.11164117754346    0.63280547477311   -5.79970067783280
C          -6.83241542243524    0.98524992977308   -4.50529291322762
C          -6.59729168723061    2.39969192235994   -4.45294567804820
C          -6.75065313343109    2.93237215795936   -5.71469220210883
C          -6.26622859456979    3.11842874563278   -3.29791935291154
N          -6.00373906509208    3.71651588692606   -2.35305752714148
C          -7.55369048852448   -0.65776871895593   -6.19744858646555
C          -8.28853514637671   -0.96024331632878   -7.29607156656582
C          -8.68814838139967   -2.27750697387453   -7.66512309926543
C          -9.48844154006131   -2.57222844666796   -8.81314507276833
C          -9.67185040112490   -3.94497891644725   -8.89974649117529
C         -10.36460159482043   -4.74024449811406   -9.83081293370968
C         -10.35593361055852   -6.09986697456005   -9.63755236583011
C         -10.94167953680219   -7.17055855996843  -10.37559059034248
C         -10.62980115404206   -8.37101563202754   -9.75324290364978
C          -9.83824147337530   -8.07731398033736   -8.60532179489796
C          -9.66004459993234   -6.69912953871767   -8.51678646455568
C          -8.96830580496761   -5.90937603137832   -7.58789019243601
C          -8.97464468382834   -4.54462960443787   -7.77960142406826
C          -8.37950731942193   -3.48780922250551   -7.04294078561055
C         -11.04681450952724   -9.67468516907401  -10.21122376452085
C         -10.75211997973937  -10.83182416164924   -9.62487387228670
H          -8.04120711041299   10.42695570061040  -13.96858941629305
H          -7.46305578989588   15.04481065778148  -15.82329503149852
H          -8.16392897846389    9.63751660707742  -16.65355135543676
H          -7.40726456101895   15.40022224816960  -10.12060653148180
H          -7.70414884540303   12.49313481761268   -9.72403558661789
H          -7.60494693967817   12.87798771543522   -4.84928813902029
H          -7.90497808019142   10.83418287541409   -6.25519854945081
H          -9.03570840740093   11.29584731701661   -9.06811365586157
H          -9.43505668013091    9.09417436233705   -9.05741981024611
H          -9.99197589354165    9.73918560397327   -5.53750900137158
H          -8.26547619209019    5.58486614390480   -5.77141560896673
H          -7.66728530921922    7.63502567809113   -9.00665371157338
H          -6.83767167275777    5.69677316508928   -9.72370060761517
H          -8.24176841072681    4.33909000762202   -7.36797750423733
H          -6.73958981413949    3.58573029286116  -10.90947905864324
H          -6.30833245868882   -0.06847418929187   -8.65033937996212
H          -6.82741451544994    0.33658187360919   -3.64930586296134
H          -6.52775307913365    3.94485054251521   -5.99169501782362
H          -7.32833802325700   -1.44732315870363   -5.49141838765289
H          -8.61900185855467   -0.16547560157811   -7.95177547424945
H          -9.87305455758465   -1.83472722073881   -9.49517943498545
H         -10.88020206676726   -4.28690086613999  -10.66577181144978
H         -11.52769689984343   -7.05701903021452  -11.26956953464250
H          -9.44203574255726   -8.80300651621793   -7.91893457577901
H          -8.44931426112103   -6.36202677884773   -6.75457041520931
H          -7.78921040294487   -3.61887664936738   -6.15529827527667
H         -11.64888072379105   -9.66938865425701  -11.11138704318851
H         -10.15766213453880  -10.88832026442299   -8.72918570768021
H         -11.09905329282589  -11.76891154728557  -10.02406946546111
