121
 SCF done       -201.616322284587          0.000297599036
C          -2.52121588515280   -1.47697569897177   -0.48310664813928
C          -1.17739322674283   -1.33745750719177   -0.25082790253318
C          -0.23473571836474   -2.37288076604603   -0.42114513153551
N           0.58040518602178   -3.17188831477881   -0.54512346741981
C          -0.54170593055527   -0.16567320302928    0.21159640611930
N           0.05624040520254    0.73579635814819    0.59790795786478
C          -3.18403396470199   -2.71282831935569   -0.87890033276708
C          -4.58101765193296   -2.48921189521710   -0.89980522316870
C          -5.48557977626971   -3.46866092763596   -1.23017248303471
C          -4.98668629955857   -4.73431027838826   -1.55343589196295
C          -3.58776907613650   -4.94874588171721   -1.53516029989470
C          -2.67367418818233   -3.95691981983213   -1.20331965385577
S          -3.18663852795678   -6.58231227341243   -1.97298141491545
C          -4.88009545650906   -6.94961116743492   -2.16820232230872
C          -5.70518870318694   -5.90507083802807   -1.92038517783566
Br         -5.39897460312243   -8.67744385527659   -2.68137927896086
C          -4.86881203421914   -1.08891663647858   -0.52616162105737
O          -5.96793367914097   -0.58087786210397   -0.49268639810808
C          -3.54241249276193   -0.45695238944878   -0.30178552357604
C          -3.29333626162973    0.87539427709823   -0.16087214264621
C          -4.21311028036712    1.93861130850016    0.11863526044437
C          -3.89786933906130    3.22522895185448   -0.36233204446252
C          -4.75803728188936    4.26532960312685   -0.12826023315252
C          -5.93554150437830    4.06100724714527    0.61568404498805
C          -6.22785952134579    2.80992450341154    1.14308942906615
C          -5.37088910957684    1.76045565509157    0.89148754844411
C          -6.63550653098111    5.31943864116289    0.71930777400003
C          -5.89017157146225    6.30812483560443    0.05156959350125
C          -4.66738572496680    5.70199458389544   -0.59949429381231
C          -3.36646738771269    6.38115004050080   -0.14745511951295
C          -3.16460754070852    6.30274578121434    1.36153364122763
C          -4.79341356870992    5.67694247967201   -2.14181269859774
C          -4.92351919725335    7.03392136576487   -2.82064724416775
C          -6.30658806249683    7.61784974013260    0.07896344918624
C          -7.51375664915064    7.95613271538485    0.70730264182797
C          -8.25445561713905    6.95342691856100    1.34431460412273
C          -7.81830626319622    5.64528002249873    1.36834066646765
C          -7.94810814216067    9.33986145794714    0.67397557732348
C          -9.20199348300717    9.76464146871660    0.87689539364432
C          -9.62850474421812   11.15470207043261    0.76263125333010
C         -10.58369434599016   11.76040634520708    1.59470186265612
N         -11.20394747592442   11.30045037902658    2.73854274213832
C         -10.83650450682651   10.08869844596382    3.43097137379394
C         -11.82780639437874    8.95145889457365    3.19097664511345
C         -12.09934032417906   12.25604725293014    3.17792485953185
C         -12.02656944631845   13.37481051418223    2.31091015380514
C         -11.04186571046979   13.06831193106829    1.31709034339340
C         -10.53762837729974   13.80263163106475    0.25316975135384
C          -9.56276005065927   13.22517938283079   -0.53409200160467
C          -9.12839464131220   11.93139319535388   -0.28179172685725
C         -12.82759132058576   14.49306253918873    2.48740099990362
C         -13.73212844240117   14.49074506947280    3.52923069356198
C         -13.83723563384294   13.38653164073367    4.36058715954450
C         -13.04104185259016   12.24695325555914    4.22386473853490
C         -13.25898441307062   11.13966724464357    5.14114504574096
C         -14.47478383952094   10.77426811765431    5.58464556237753
C         -14.70858343846872    9.67440063426578    6.46760569624573
O         -15.98231924459366    9.38840735502274    6.83307913027195
C         -15.98692743601006    8.29944136153801    7.63643779530135
C         -14.68293762526307    7.86934359376896    7.79640346848758
C         -13.87071903415905    8.74272935051517    7.05304966127981
F         -12.53942822557263    8.67642014533665    6.92536737549140
F         -14.27288314948633    6.82007155143777    8.51762595418158
C         -17.22193279074145    7.78677957133649    8.14474388590917
C         -18.48420408251092    8.31079262393234    7.91489459061583
C         -19.43647936260834    7.49108325429194    8.58823013796419
C         -20.80638323610993    7.56617298058537    8.67606963763022
C         -21.46659749320634    6.57803270474687    9.42620526656251
C         -22.81443108390109    6.37517393600533    9.69866001222658
C         -22.95563397961805    5.21119405917018   10.51456428843154
C         -21.69178104359061    4.69742858677998   10.74561832995537
C         -20.72786281820467    5.52097098266056   10.08286641005640
C         -19.36167382164587    5.44536691667407    9.99919834285749
C         -18.69751798270115    6.43487623360341    9.24630226803767
C         -17.35207983003095    6.62760437072654    8.97017849986261
C         -24.18643207718357    4.65045256213126   11.01957609590276
C         -25.40610355472264    5.13172291615915   10.79690600860207
H          -6.54479138351013   -3.26426864455790   -1.23597806364449
H          -1.61779438637196   -4.16933040761075   -1.20963525959005
H          -6.77625274106431   -5.95553868694024   -1.99289887053521
H          -2.27135167531682    1.20212521024693   -0.31793629049178
H          -2.99011511845721    3.36800948849099   -0.93116585180702
H          -7.11154278719810    2.65917705754252    1.74394375861237
H          -5.57510421792023    0.79496922140004    1.32229712628561
H          -3.38769809649257    7.42922654211800   -0.44875320518995
H          -2.52437743695267    5.90334880726654   -0.65233798515274
H          -3.98801124955679    6.78539544515678    1.88378017431970
H          -2.23942886755111    6.80082970377112    1.64182361713500
H          -3.11028800982978    5.26741281825514    1.69052118279844
H          -5.66902967275804    5.07360037512956   -2.39634514934174
H          -3.91386930480810    5.16357217863538   -2.53701593764777
H          -5.84464414910715    7.52865333364602   -2.52525619728109
H          -4.94726039626828    6.89446798143996   -3.89942430702437
H          -4.08158052982704    7.67913834823487   -2.58403796740621
H          -5.72090438179440    8.39950526437488   -0.38207653409243
H          -9.16941916033359    7.21083316785493    1.85563391919507
H          -8.38615223823615    4.88806050313981    1.88788494899634
H          -7.17618286446043   10.06565685144712    0.45029908237289
H          -9.98275834353177    9.04170695769292    1.06551156541081
H         -10.75335938067260   10.29852396587050    4.49949022513474
H          -9.83998823592339    9.80089623872787    3.08659633251603
H         -12.82348169503702    9.23710728875523    3.52122504180137
H         -11.51786997798164    8.06998076770320    3.74628812954230
H         -11.88280378404640    8.70276294948255    2.13316344939187
H         -10.90166388307403   14.79847730182169    0.05337920686143
H          -9.14495965433173   13.77003153830955   -1.36730083818352
H          -8.40397610622875   11.48433700194806   -0.94626844286777
H         -12.74335284814394   15.33572741283046    1.81886446732203
H         -14.36802641952619   15.34623540111839    3.69999745387507
H         -14.54642342014527   13.41346404145293    5.17396763111522
H         -12.40244013646150   10.58899761228233    5.49088552682891
H         -15.36931898739972   11.28266120701386    5.25514511469276
H         -18.70578041902383    9.18244925859159    7.32885480362819
H         -21.36458169099348    8.35251380351319    8.18738493939848
H         -23.62230957163199    6.99345317171383    9.35206262545971
H         -21.46038798894396    3.82246358175914   11.32557842048227
H         -18.80157606019412    4.65961236982731   10.48624869847700
H         -16.53584919716148    6.01725120484242    9.30920066069081
H         -24.06502065062751    3.76182019898389   11.62673440095492
H         -25.57766398215957    6.01091456367635   10.19987782395389
H         -26.28133140851024    4.65865368157554   11.20706681991813
