96
 SCF done       -183.042622150099          0.000286949897
C          -9.77328656481806   -1.86113355137791   -1.62462200004621
C         -10.41056098912770   -2.55982789497420   -0.63028405643788
C         -10.91253379137950   -3.86923047419072   -0.78057344697998
N         -11.33678659968624   -4.93474251445684   -0.83600279830116
C         -10.66667385556966   -2.08453723318646    0.67233119638654
N         -10.91753828415654   -1.77561648358872    1.75032842091395
C          -9.55248530094552   -2.34098064762861   -2.98297606528216
C          -8.93218916134917   -1.31150476838580   -3.73101174683788
C          -8.60651878477295   -1.44909405747885   -5.05836798711715
C          -8.90741387747788   -2.66360677211791   -5.68156006862272
C          -9.51268348208864   -3.69557426035723   -4.92306579384892
C          -9.84285152092779   -3.55481395532655   -3.58080403166996
S          -9.78170975968654   -5.11780006058800   -5.88539848475594
C          -9.09754437882613   -4.30827553351288   -7.27285648747935
C          -8.68255528846814   -3.04425355868682   -7.03184454394911
Br         -8.98119280323129   -5.20478765936011   -8.90700881380245
C          -8.71559959980289   -0.13236051980856   -2.87263666643338
O          -8.14678976023090    0.88682774014570   -3.20097784040705
C          -9.25479844726713   -0.50587507810460   -1.53658587482503
C          -9.10893793365438    0.21316199861215   -0.38570762767660
C          -8.70580870667609    1.58202701532142   -0.28290799233513
C          -9.07834720832430    2.50745515605533   -1.25501736292902
C          -8.63170582094309    3.81285459949526   -1.23138475562636
C          -7.78963253966069    4.28190899606184   -0.22576573637657
C          -7.52077294028591    3.40584979431093    0.88053309627400
C          -7.96603826036853    2.05602989281989    0.84872247389586
C          -7.60488038494463    1.24547008777455    1.94339550863581
C          -6.88682915047409    1.77980845655271    2.98230458852128
C          -6.51541343711033    3.12827103044366    2.91395502468931
N          -6.80995738314504    3.90267925274012    1.90494010865035
C          -7.18281527279843    5.56815319004080   -0.23766517094515
C          -6.91964088458029    6.33831911886627   -1.33723843590650
C          -6.26055020127761    7.60012209125053   -1.33937140395126
C          -5.99260428670875    8.09942126261670   -2.57603921972416
C          -6.41637490788958    7.25873264644576   -3.63184133928624
S          -7.21119765296218    5.83799687735427   -2.99569449338371
C          -6.25764851113297    7.39800699477379   -4.99579551981250
C          -5.66373740820655    8.43921300183333   -5.74510713201136
C          -5.64551101174985    8.20785997848897   -7.08559223236696
C          -6.21346174176628    6.96352098799781   -7.48335220075721
S          -6.81893555613900    6.12975445352126   -6.06102782112179
C          -6.17541084392225    6.43472909925633   -8.74546386745146
C          -6.65947398063222    5.15110720911577   -9.14160108558481
C          -7.70237805802060    4.53511700220020   -8.45110277540335
C          -8.12209815283815    3.25421791803033   -8.74268359931214
C          -7.55191570647711    2.50815674398116   -9.76865000151343
C          -6.48964892908171    3.10308746848944  -10.51890123069145
C          -6.06414961009131    4.43089370999612  -10.23084613442830
C          -5.02368674631584    4.94226580389852  -11.02889106962076
C          -4.46368000352104    4.17030627585991  -12.01511848692816
C          -4.92295011764741    2.85853235022033  -12.16992160488342
N          -5.88637999433182    2.34886830516088  -11.45160578014141
C          -8.00734723377575    1.16899059224842   -9.96615582762795
C          -7.99488172703212    0.34789399576815  -11.04880725212906
C          -7.75949159481121    0.55257355641216  -12.46077671676902
C          -7.96940497021222    1.71187540211063  -13.15939909927325
C          -7.76175462098163    1.84598821976567  -14.54561609409910
N          -7.58428699011659    2.01320970101851  -15.66777099728267
C          -8.47101818730830    2.89221207288664  -12.57653066127457
N          -8.91428633885128    3.86539226554536  -12.15876936765563
C          -7.49255611772845   -0.75570756320264  -13.04889383459066
C          -7.77153863637405   -1.75780875696243  -12.08389312645034
C          -8.16776281490086   -1.11020221151426  -10.82336941750875
O          -8.51246041147794   -1.64400826046763   -9.78974430425325
C          -7.65238965810193   -3.10036477100850  -12.35182725595427
C          -7.22369290226883   -3.47066375077069  -13.63075270035071
C          -6.93332241957004   -2.46448118823128  -14.58300630277076
C          -7.06514405410351   -1.10688006737823  -14.31462543660637
S          -6.40843860778424   -3.14727477438280  -16.09184885866330
C          -6.58809965335934   -4.75274935918845  -15.43307197108899
C          -7.01731192234231   -4.77862923974472  -14.14958716477063
Br         -6.18778825975598   -6.23926724471605  -16.50390288190731
H          -8.13648179736023   -0.64340442329131   -5.60022376221828
H         -10.30255085911345   -4.37022967043175   -3.04781585018118
H          -8.26327782863494   -2.40429448775445   -7.78623874459093
H          -9.29637544229232   -0.30252969938454    0.54649823596052
H          -9.75341092376308    2.20420561820168   -2.03836896610144
H          -8.96930088718972    4.48513039700418   -2.00406479632187
H          -7.89855593818134    0.20713721593524    1.97590654333614
H          -6.61083044270677    1.18085571322481    3.83586655722153
H          -5.95235172435975    3.59033098613027    3.71475915082934
H          -6.80884181181669    5.91505001357495    0.71627897940084
H          -5.99861365774257    8.08773708508957   -0.41703529759448
H          -5.48773684117483    9.03104723804615   -2.75996611509354
H          -5.26092187653962    9.31870469959732   -5.27519402117854
H          -5.22674921563139    8.88358784012208   -7.81064460085009
H          -5.66169549364446    7.03509374686469   -9.48300402958917
H          -8.23179268466568    5.08508379536871   -7.68995566001782
H          -8.94007321421500    2.82876673211300   -8.17986372208125
H          -4.65666973685286    5.94470121695645  -10.87013648052791
H          -3.67646857518125    4.55109811815964  -12.64641536046000
H          -4.48557750358622    2.19776126787041  -12.90822680701866
H          -8.39110964266615    0.69190076792910   -9.06664585337158
H          -7.88320652144875   -3.84290218196262  -11.60351661932899
H          -6.83038189274089   -0.37553028767672  -15.07031206531074
H          -7.18299277323743   -5.67914180785363  -13.58690107560798
