110
 SCF done       -180.237571737007          0.000299629788
C         -10.47291610360249    3.37742970953626   -4.91497295467137
C         -11.54711495140173    3.08532256194514   -4.10280114220355
C         -12.83405622169558    3.62701818085244   -4.27190753942402
N         -13.90463415802185    4.04002741942927   -4.34541735992093
C         -11.52166394746211    2.24128232883848   -2.97837172721149
N         -11.61061778499138    1.56945930422682   -2.04919760649798
C         -10.51839464432223    4.27228604552374   -6.07099953050921
C          -9.20716101502427    4.40849753951923   -6.58555451227668
C          -8.91910431826851    5.17420779497138   -7.68671182148515
C          -9.98009001933058    5.83394570727338   -8.31902162148159
C         -11.28556356864095    5.69075224116780   -7.79911007894770
C         -11.57575320443577    4.91957784035746   -6.67864755000113
S         -12.44906865546840    6.57827676075952   -8.73924362746716
C         -11.17912734797975    7.11867948868357   -9.80473757957380
C          -9.94846431735069    6.66294996704385   -9.47479229018010
Br        -11.59990886189786    8.23203320919967  -11.25650291816331
C          -8.28067502990466    3.59020437746545   -5.76962123972368
O          -7.07618544245796    3.50593489722585   -5.92881516776969
C          -9.12125517937482    2.92176209343438   -4.76634887151856
C          -8.66021047361354    1.99084169614210   -3.84955802950736
C          -7.33330752549192    1.63308729662774   -3.68208139628370
C          -6.91399577957199    0.68934216605558   -2.75896728387460
C          -5.57872540363952    0.34999140843704   -2.45772934364075
C          -5.44989171450169   -0.59578351355131   -1.48046279217801
C          -6.68136720024315   -1.05601470254853   -0.97737458272404
S          -8.01242746854638   -0.24401973448054   -1.77655476213756
C          -6.89596928819479   -2.02451074477915   -0.01265880272667
C          -5.93135693705498   -2.77821335402869    0.69483638611650
C          -6.45979652519052   -3.69300677495861    1.55206661556028
C          -7.87543038117357   -3.71398471593031    1.56754306740725
S          -8.50354969819591   -2.48819099062395    0.46133545139419
C          -8.67820486090490   -4.56364359074874    2.26998828554185
N         -10.02660120270509   -4.50426439512373    2.24512837551789
C         -10.90989556487333   -5.40297251754577    2.82533074202654
C         -12.12640575179088   -5.67564039594891    2.25973918156724
S         -12.99679268532764   -6.88317342758080    3.10288780033158
C         -11.74031918130123   -7.01780687732707    4.26454760375399
C         -10.69464305020179   -6.17153308453590    4.02144324047874
N          -9.58269810894201   -6.09030801697673    4.84380739656111
C          -8.97579267568625   -4.90424694973853    5.19325758335726
C          -7.97288340476092   -4.81705995435946    6.08224883673221
C          -7.28113031495090   -3.60462605083777    6.40511346289041
S          -5.82750263970509   -3.70651215596715    7.36055557635528
C          -5.57672057218828   -2.00790573872954    7.25316428641273
C          -6.55346295316002   -1.39417327297631    6.54434282832106
C          -7.53959662943251   -2.29290036106586    6.05765073506832
N          -8.69536067652884   -1.87908306150385    5.36729797922376
C          -9.91253905499133   -1.93530257420330    6.15821286007292
C         -10.03156029487334   -0.77266919669412    7.14497200214932
C          -8.56695679778540   -0.98807759471272    4.31015006426990
C          -9.63693533961465   -0.19589673319299    3.87260020530398
C          -9.46138937207274    0.65478778640748    2.80727009607069
C          -8.22663933709902    0.75608762850261    2.15021991085309
C          -7.17187371352463   -0.04526644093421    2.55746049748028
C          -7.35259295109908   -0.91706613847155    3.61333570749741
C          -8.34300610932081    1.75062284953304    1.10251322321329
C          -9.65950200818551    2.23823966390908    1.09626917876558
C         -10.46803292854060    1.60642915352988    2.20535764993380
C         -11.71261693106934    0.87445924856725    1.67560910314080
C         -11.36936471562822   -0.25008119792861    0.70909877193060
C         -10.90418319177655    2.67027244369707    3.23302240383138
C          -9.73237103837275    3.43693942787686    3.83434151992634
C         -10.04892463343179    3.18855570241620    0.18477328946930
C          -9.12533490678103    3.68557061053774   -0.74396710688044
C          -7.81159954128225    3.21118669662508   -0.70844675560181
C          -7.41463287910923    2.25016299449867    0.20231674345316
C          -9.57824288128811    4.68518201833761   -1.70040452055582
C          -8.86887121037147    5.24500785081792   -2.67447258826136
H          -7.90898961686661    5.25793198585954   -8.05628286560491
H         -12.58983539680920    4.83892513293454   -6.32456437596735
H          -9.05425946845606    6.89715179555985  -10.02324541359981
H          -9.38324828990126    1.50659551875206   -3.20463228946256
H          -6.57779662078295    2.12181533905357   -4.28002753323793
H          -4.75442574433374    0.82046188982726   -2.96372279128633
H          -4.50750024428697   -0.96709537330439   -1.11856538239661
H          -4.87759420680141   -2.62669113131695    0.54662612271300
H          -5.88306789961844   -4.35543996215506    2.17277246025499
H          -8.22783401295866   -5.32886630601075    2.88252046723736
H         -10.43203336827153   -3.85915974316581    1.57679625579926
H         -12.53607835579383   -5.24017433083849    1.37054475688716
H         -11.83739503208905   -7.71106267107416    5.07550635247389
H          -9.44716656662817   -6.86705410771873    5.47588434505058
H          -9.32848994806924   -4.03300996232202    4.66888587040540
H          -7.61652601471993   -5.70975553367469    6.57934238873222
H          -4.72557852667043   -1.57187897271578    7.73617968009136
H          -6.59273641201294   -0.33416099889674    6.36577739856426
H          -9.89854831031189   -2.87634455428062    6.71502819396104
H         -10.77452965492345   -1.95875637126410    5.48667434914523
H          -9.19915153084381   -0.79278954773923    7.84512636325118
H         -10.95933575466792   -0.85273157441047    7.70555389159985
H         -10.01764189953287    0.18081123439796    6.62279738664786
H         -10.59651600272684   -0.23124215154973    4.36245555975727
H          -6.21455007001259    0.00250028463485    2.05833631907709
H          -6.53739564988361   -1.55833438419782    3.91491622731226
H         -12.35247289228002    1.59716804528001    1.16729882846224
H         -12.27052823146076    0.47155002125834    2.52556076895932
H         -10.86033811455792    0.14501638038336   -0.16464927169413
H         -12.27800136534511   -0.74653231754411    0.37669146803390
H         -10.72295796228627   -0.98258053419331    1.18843234001297
H         -11.46191029721888    2.17721773982016    4.03318380927331
H         -11.57987971713196    3.37193315652187    2.73999007988089
H          -9.05216311643963    2.76001149841601    4.34723791186735
H         -10.09274324702312    4.17264513340444    4.55036316604311
H          -9.17533707247504    3.95568919048322    3.05761093364978
H         -11.06431131468682    3.55817979437070    0.17278497822439
H          -7.08725876268803    3.60119432961290   -1.40711973804892
H          -6.39220439332818    1.89788984067667    0.21149886650598
H         -10.61579208691869    4.97754421568616   -1.58097606377490
H          -7.83621211366360    5.00548894786399   -2.86109336558473
H          -9.30506146352433    5.97689923158283   -3.33419399196168
