102
 SCF done       -210.310260958508          0.000910169026
C          -4.22308724357565   10.92909918921499   -5.62742243115640
C          -5.27977473781852   10.05399762797465   -5.69617167847501
C          -5.91313646206715    9.67168808187811   -6.89711985875326
N          -6.46914538276704    9.32229315698556   -7.83855511420254
C          -5.88133702297837    9.42549272430732   -4.59057603208712
N          -6.42290092682283    8.88063168518810   -3.73417622467158
C          -3.58728433785722   11.60354091073845   -6.75559773409669
C          -2.52973633688453   12.41979604906746   -6.27229759812368
C          -1.74300620367262   13.17966401087069   -7.10256817506669
C          -2.00844386839318   13.13459644946718   -8.47592032128435
C          -3.06478079112061   12.31945602328932   -8.94889069447501
C          -3.86167767191319   11.55044678342580   -8.10875082695421
S          -3.21929031766056   12.41262856211884  -10.67598550615272
C          -1.88171638903375   13.52882611006494  -10.74027026752503
C          -1.34523036214523   13.81843771516476   -9.52995199467235
Br         -1.31957785352140   14.20575030069172  -12.39552501998448
C          -2.45778181911939   12.28855317937295   -4.80928211702838
O          -1.68807670801060   12.84070725098193   -4.03641412412355
C          -3.52207783620670   11.34926474155779   -4.44000122321175
C          -3.74678932919883   10.97540568354080   -3.14218547015979
N          -3.00414062017629   11.43540435668602   -2.12841813537842
C          -3.15359401141436   11.02474795772444   -0.82937159192011
S          -2.86482994073722   12.12311747495228    0.47886732947527
C          -3.43023179212352   10.91348141323400    1.58431248979705
N          -3.41928987795128   11.24454681499939    2.95039967236636
O          -3.80889821539270   10.41106996664016    3.74060852390172
O          -3.01344246041904   12.35816227655899    3.23160239636812
C          -3.80976752073795    9.74372955951864    0.98197246108299
C          -3.63420961480935    9.78227982227348   -0.41527453275919
C          -3.82117538439751    8.66935600981590   -1.32019447378390
C          -4.78470802307690    7.74106010348169   -1.20563772548808
C          -4.90699215973692    6.64081074945291   -2.11055900085411
O          -3.82369685365690    6.27154130694449   -2.86440668123512
C          -4.13622716344852    5.21049085153065   -3.57928793523185
C          -5.44589705802625    4.84550839562328   -3.34427714035330
N          -6.14435473517529    3.79023498097014   -3.94668762438036
O          -5.56509048281778    3.11791883551303   -4.77238632022903
O          -7.30945003630352    3.62009368651680   -3.60677814929937
C          -5.96844424460058    5.78522784205650   -2.39133325000089
N          -7.24435580169314    5.77550389804391   -1.95122840806042
C          -7.93484295289950    6.91437093542641   -1.40145196291417
C          -7.97553490824183    6.78238052239556    0.13536237891846
O          -7.09256229478360    7.04895529907261    0.89572573736174
O          -9.15238153555340    6.28821996961500    0.50626668521660
C         -10.05430633297162    6.13433198812380   -0.59156356905504
C          -9.42016490057782    6.90695092459735   -1.76485601162904
C         -10.00086232105075    8.31453631101263   -1.85138129085597
C         -11.48125506937003    8.22795616609976   -2.20306207424686
C         -12.27637246084669    7.42413764529800   -1.16540111384169
C         -11.43439748077314    6.64493802048281   -0.12988847545562
O         -12.24039931394511    5.53963614147377    0.25692308716490
C         -13.24511039581948    5.31042642770539   -0.59454038514445
O         -14.03284959249092    4.42591401282469   -0.46565152416116
C         -13.20241568648103    6.33763151094088   -1.73911104000773
C         -12.69602939313178    5.64148139838506   -2.95452330314479
C         -13.39543330183984    5.55622861823424   -4.09336411317497
C         -12.92650562273861    4.87810620050103   -5.26136565908162
C         -13.43420903748633    4.99227826721120   -6.51159555755693
C         -14.42730230423413    5.89931696567733   -7.05761476039608
C         -14.63721441230584    7.19594383532805   -6.66966455379126
C         -15.58301506616726    8.05204024111604   -7.27280578447443
N         -16.35759908908788    8.77380974846137   -7.71495842101865
C         -13.85058770597097    7.85843245582729   -5.70469846746277
N         -13.20808962846293    8.45575789990017   -4.96424538319158
C         -14.98294890814917    5.26450566500769   -8.24514205973509
C         -14.18723211943431    4.13578388732351   -8.57231577253521
C         -13.12999272543435    3.96791341289034   -7.55485964975454
O         -12.23901239961056    3.15502702006350   -7.53183916171080
C         -14.43401248883724    3.35801792625204   -9.67776844219216
C         -15.52083026536074    3.70134867648992  -10.48886294180802
C         -16.31857401152757    4.82005937893799  -10.14330811864215
C         -16.06468858452680    5.61329977477205   -9.03176098828207
S         -17.61471666843790    5.05494518987729  -11.27475155286763
C         -17.07356802784052    3.67185724085949  -12.18859775472982
C         -15.97941665236125    3.06210687120370  -11.67259789521010
Br        -18.00489149153340    3.16364923812843  -13.73385235320023
H          -0.94634222944552   13.78996135168132   -6.70711337287572
H          -4.65437277422301   10.94587605770499   -8.51691442876377
H          -0.51593413189907   14.48663852590593   -9.38632891025635
H          -4.54775517410695   10.29714542801932   -2.88338492674797
H          -2.31615986595223   12.15668922535398   -2.37990683948978
H          -4.17516789213183    8.89135510717299    1.52576588456519
H          -3.13001771048845    8.61573019012389   -2.15226080038670
H          -5.51169022117728    7.79426960394392   -0.40974664695155
H          -3.39478206213876    4.76906910644322   -4.21585835871114
H          -7.79548238860906    5.00486675966461   -2.31683714418960
H          -7.42135444164478    7.82890515198375   -1.71225704799682
H         -10.13262386890631    5.05937381500272   -0.79954547891709
H          -9.58723591111807    6.39377562983199   -2.71417514179820
H          -9.47640199787861    8.87460774654056   -2.62582402994397
H          -9.86105539351501    8.83314120530819   -0.90048273819829
H         -11.58620386607905    7.76905820221708   -3.18705633588244
H         -11.89769122139459    9.23094617898468   -2.28072270703338
H         -12.90725154933915    8.10901104689640   -0.59108727753227
H         -11.26267445378174    7.23757231349673    0.77490235087821
H         -14.20748999164566    6.71613051411647   -1.93064521556847
H         -11.71545119896908    5.18983883446482   -2.88863689549523
H         -14.37335800399089    6.01579625138434   -4.14479928855215
H         -12.13218851207637    4.15109701812140   -5.13372184813996
H         -13.80795875742506    2.51107161917428   -9.91052629193110
H         -16.70088825894031    6.45241013724584   -8.80276414691017
H         -15.51397537535219    2.19669465321094  -12.10764960277690
