113
 SCF done       -195.093005507082          0.000577997417
C          -4.76149015339587   -2.21244783554927   -0.80253840197590
C          -4.20223481947112   -2.04336938543156    0.43903896511243
C          -3.53572678551346   -3.06393315182002    1.15081446301192
N          -2.97799969498350   -3.83921290814797    1.78835483224967
C          -4.19584996197977   -0.87058073624404    1.22468178959010
N          -4.13301168812614    0.01423988769424    1.95609879134134
C          -4.76186146097183   -3.47297918458686   -1.53552038264234
C          -5.48383734297605   -3.29298281321536   -2.73708615322443
C          -5.67426398606045   -4.29984241695032   -3.65178046019200
C          -5.11988023335802   -5.55145510564245   -3.36719561871180
C          -4.39465284572672   -5.72374877718734   -2.16450900790769
C          -4.20493296283955   -4.70460416616929   -1.24014966898175
S          -3.79080103134171   -7.34654017324345   -2.00968441409362
C          -4.51322215314637   -7.76456285418402   -3.54061676860714
C          -5.17162265415998   -6.74428552863660   -4.13944606239640
Br         -4.32822769081850   -9.50904546066399   -4.20495451275744
C          -5.96663618096505   -1.90048410495142   -2.82450013827119
O          -6.63096983730214   -1.46095793186154   -3.74048170657761
C          -5.47158647327411   -1.21988809342557   -1.60523240018193
C          -5.56461301514945    0.08881478438885   -1.21757493719177
C          -6.17183270374432    1.26699653600059   -1.74966019016802
C          -5.98501175568558    2.44839120071097   -0.99254976525367
C          -6.53189389827745    3.62785248742682   -1.41674583323711
C          -7.28439875916437    3.67980596087089   -2.60829918146562
C          -7.47904167057156    2.52737153896132   -3.36115470877662
C          -6.92917738750900    1.33860128346505   -2.93309400749388
C          -7.73375586622987    5.03463833914144   -2.80846218373458
C          -7.26689003577846    5.82599603095103   -1.74087198924875
C          -6.45845426452758    4.99280940289681   -0.77416409904933
C          -7.08718402061533    4.98790944254438    0.63169931889677
C          -8.53748982490396    4.52016977085157    0.62976308827791
C          -5.00356128230709    5.49162681118547   -0.68583090516525
C          -4.30491317159892    5.52464015936225   -2.03987978352965
C          -7.55747034254260    7.16471273997483   -1.67842061046976
C          -8.32574136842930    7.75724350137265   -2.69589574690257
C          -8.77130305287151    6.95407165609496   -3.76091222050193
C          -8.49042802534389    5.60715115030108   -3.82460006358188
C          -8.67387705162047    9.15261360697822   -2.70116499769933
C          -8.46194956925742   10.02386599300236   -1.68792709126977
C          -8.81439673917122   11.40500762792193   -1.69400539503901
C          -8.59370048769468   12.17989347163233   -0.53337489547328
C          -8.93770382869155   13.58247027204209   -0.44571080700581
N          -8.72427659994895   14.24415642693445    0.68422406485714
C          -8.19060353904808   13.63355870165672    1.73023296147142
C          -7.83422065251368   12.25596523290410    1.63319937766716
N          -8.03986553206751   11.57357509147882    0.53369457873750
C          -7.24372753894895   11.60280587684422    2.74463128260841
N          -6.76765077813826   11.10191120365015    3.65843236134419
C          -7.97532199690989   14.33704490174256    2.93222861089578
N          -7.77525288253299   14.85047941867766    3.94018486731332
C          -9.50727125457158   14.28550193975114   -1.54668745176179
C          -9.71182777159908   13.49719207100035   -2.71904105597955
C          -9.38347695502906   12.09607276795300   -2.79367323041020
N          -9.67578334040498   11.59075873899719   -3.99097895270440
S         -10.29600896914423   12.75121921423868   -4.92355559449445
N         -10.22601049523558   13.95461784581649   -3.85408551922888
C          -9.87498129554252   15.63092503334092   -1.58608493954161
C          -9.83141337973280   16.64177749482853   -0.63922395922874
C         -10.27532806218152   17.95537330089062   -0.91700211830732
C         -10.17845787202478   18.82728729257046    0.13202374944358
C          -9.65123483205655   18.22756569637565    1.28523414542815
S          -9.27372712695496   16.53813030393255    1.00706424948374
C          -9.41575094793500   18.77818442712096    2.53907173243771
C          -9.64078252799784   20.09376515883859    2.99585232569665
C          -9.30080071147584   20.28526396108466    4.30308968463582
C          -8.78936929686853   19.12899213718366    4.94133332644036
S          -8.75675974173376   17.78655762007519    3.80585935891268
C          -8.36448205153034   18.99820741682021    6.23912622154787
C          -7.87849181414608   17.77936740725387    6.76113706995599
C          -7.46716873241241   17.53043550295749    8.02873103816740
C          -7.39834874824284   18.53397547268649    9.12780774381081
C          -6.90380419717248   16.17293296935521    8.35971714426717
N          -5.45672428931634   16.22473250623877    8.27559907563687
C          -4.70599475532470   16.70737692948952    9.31495821015690
C          -3.51646601270230   17.29361832100308    9.19364382879406
H          -6.23328744761500   -4.12548299244134   -4.55778358946157
H          -3.64238996607935   -4.89129610421717   -0.34135211154381
H          -5.67349860998490   -6.82699113348324   -5.08616773353739
H          -5.05436029538755    0.29963512056083   -0.28474169307345
H          -5.40908040980599    2.40659091066094   -0.07869182390155
H          -8.05648261944417    2.55892741161233   -4.27282344194595
H          -7.08055479467678    0.44620676286324   -3.51536923755904
H          -7.03350954596612    5.99823317859080    1.04180719807645
H          -6.49629273246154    4.33426247248219    1.27623542260443
H          -9.15140606604713    5.17107750013589    0.01091218528437
H          -8.93428082464666    4.53388786983149    1.64206512940518
H          -8.61554777928459    3.50591232273662    0.24393846397164
H          -4.45108099910907    4.83791228519900   -0.00807204808604
H          -5.00484193465903    6.49471822348223   -0.25500779399508
H          -4.26984179939497    4.53070615158671   -2.48082057742569
H          -3.28535708829142    5.88506909505390   -1.92479864437102
H          -4.82786955414227    6.18627009024409   -2.72705113470949
H          -7.19072991366886    7.76325901380137   -0.85933961101311
H          -9.35707838264976    7.41573264737464   -4.54283401515236
H          -8.84882827969476    5.00802173304078   -4.64838445597233
H          -9.16222189498056    9.51642350194659   -3.59433953019192
H          -8.00842633794007    9.69608039340041   -0.76354508623232
H         -10.27744377713687   15.93387387223030   -2.54668651749803
H         -10.65696610915737   18.21954060545887   -1.88797806515341
H         -10.47304919461227   19.86120401368574    0.08957410804566
H         -10.04495070114682   20.85674080014793    2.35469093046785
H          -9.40182190821188   21.21953315040130    4.82717779522720
H          -8.42151307345095   19.87434493132084    6.86961393480422
H          -7.85684039031438   16.95421824981052    6.05784556319284
H          -7.74567878624668   19.51451688835771    8.82078936947231
H          -6.36768887483957   18.62391070586065    9.47748076902061
H          -7.99898299448150   18.19896144726013    9.97399080415676
H          -7.26073106364954   15.42012012194087    7.65273881289944
H          -7.17446052915103   15.86875195029447    9.37381394426999
H          -5.10895806158543   16.46001815954348    7.35510102999970
H          -5.13050902748636   16.51045246278830   10.29149409583466
H          -3.07921993116672   17.48910803685030    8.22955608651466
H          -2.93545752148567   17.56060673740700   10.05554113962522
