120
 SCF done       -219.612473516756          0.000258203692
C          -4.63455871591881   -2.10154603780286    4.02835256293778
C          -3.72173663863915   -2.45770135592114    3.07142461648004
C          -3.12753687506350   -3.73476932159385    2.98524646311558
N          -2.61673287355425   -4.75523428525871    2.86087926541882
C          -3.22693591196909   -1.61657785513609    2.05077039315493
N          -2.76574228027462   -1.00750149901085    1.19357591650309
C          -5.09495030901672   -2.95285396660202    5.11682006028376
C          -5.93693569341788   -2.19203317098026    5.96289368544082
C          -6.53424576485300   -2.71745131634485    7.08313786196055
C          -6.28751914915373   -4.06023860205821    7.38478889991183
C          -5.44670407970010   -4.81511514806164    6.53178990795568
C          -4.84396185279854   -4.28372591000691    5.39906234114257
S          -5.28296666624921   -6.45463750597614    7.08406310888517
C          -6.32914657737476   -6.10774258874606    8.43538927587264
C          -6.77985995956347   -4.83134552020942    8.47305632000194
Br         -6.73068997276747   -7.46459549142680    9.66622397970143
C          -6.05467485787391   -0.81456083954699    5.44350499728723
O          -6.72292821970721    0.07070028886098    5.92995556923062
C          -5.26045199742639   -0.79542345936778    4.18581408356568
C          -5.27355268593877    0.17613622127119    3.23495552711755
C          -5.78578241620683    1.51593013924654    3.31391082049584
C          -6.26043391223471    2.10387029084130    2.12596869218755
C          -6.72707733130358    3.39170903866131    2.14723863610230
C          -6.69492951363203    4.13982389563385    3.34037533971166
C          -6.20137726809198    3.57932728513547    4.51166734168326
C          -5.75574079335368    2.27437787252923    4.49307853364487
C          -7.18035178244111    5.46935073686874    3.06012138189465
C          -7.52039815078020    5.54617230105320    1.69617896905415
C          -7.31614312893424    4.20970300673978    1.02213982291125
C          -6.37961499104049    4.30412117301544   -0.19439660452003
C          -5.01340875370550    4.88287779532551    0.14706861937788
C          -8.66824485509420    3.61388142396225    0.57497652581659
C          -9.67233776004216    3.47771645877467    1.71326171784592
C          -7.97592983472617    6.72277622238301    1.16020702944071
C          -8.09695394342721    7.86632170818161    1.97390323317781
C          -7.76431535193053    7.76410411608822    3.33718528839496
C          -7.31602153159929    6.58207186033526    3.88192959086303
C          -8.56877211086522    9.08313918499786    1.38357434128911
C          -8.71653753760070   10.27971756478657    2.01648186808893
C          -9.21908423668819   11.43451503473223    1.39872137477385
C          -9.42552775321622   12.61864075359102    2.06713875474063
C          -9.97780559237660   13.81587986452420    1.55706263120750
C         -10.11781685877077   14.80658114826299    2.48567194184032
C          -9.67269811076332   14.44220207562838    3.77303132916847
S          -9.05747209075890   12.81392610007561    3.77436167323472
C          -9.69980113911649   15.19475900969856    4.94173956016831
C         -10.22224423973427   16.47998227194343    5.16045455628445
C         -10.11224963800449   16.89979303222051    6.45937250302524
C          -9.48508861207220   15.97282189660348    7.31524688164175
S          -9.04520377086913   14.54038140723188    6.42564024590349
C          -9.22593216698208   16.14784646001488    8.66910200671871
C          -8.53873423176554   15.26918442386086    9.48770783161884
S          -7.88750811005503   13.77081690260253    8.90458761499839
C          -7.11767840463063   13.38892578534750   10.42335964476720
C          -7.41239907754928   14.38972825133864   11.38474289932481
C          -8.21059762985310   15.44385065801218   10.86578572539599
C          -8.58310375876211   16.51032986480716   11.68875423088758
C          -8.16956651851503   16.51644741564376   12.99758471161603
F          -8.52686706126474   17.53191552175135   13.80148102892315
C          -7.37972178976334   15.47485473602611   13.51169362025116
F          -6.99677982825637   15.51520962035534   14.79753411070896
C          -6.99851380858822   14.41992417426018   12.72252470013125
C          -6.28841677201583   12.27987345598413   10.52940377190258
C          -6.04458989221898   11.43153355581770    9.46788405304862
C          -5.12583307092198   10.39209373948626    9.49497372468482
C          -4.73083016797460    9.58749251408312    8.44025874738561
C          -4.95224187710738    9.67153839965547    7.02675906308963
C          -5.33498596833930   10.76966858921752    6.27929586443963
C          -5.70218766156811   10.71026985309680    4.92517493248639
N          -6.09342541032629   10.72661331598124    3.84281466623204
C          -5.35534846626061   12.10701535454402    6.71676815183872
N          -5.32900171455485   13.23216716078369    6.95201972666381
C          -4.53537144223036    8.39526058769110    6.43837558638926
C          -3.97724400640052    7.58437575780260    7.45679122902471
C          -4.03999251621628    8.31871465605872    8.74010158593389
O          -3.63176116980069    7.94252153397759    9.81971960714322
C          -3.45441235072380    6.33993846391773    7.21211985757485
C          -3.46798530669561    5.87308404094494    5.89196277740081
C          -3.99923924570495    6.69973360996036    4.87723402833801
C          -4.53896822694655    7.95668538163960    5.12812812249483
S          -3.87410113132571    5.95112825375352    3.31304884549529
C          -3.13825845729915    4.54761737384866    4.03891899508512
C          -2.98396465824132    4.63752677946053    5.38060569791077
Br         -2.63824707590018    3.09274236632749    2.96103695130046
H          -7.17121054053014   -2.10998402684505    7.70687828289428
H          -4.21717019573715   -4.90174726644850    4.77843961492591
H          -7.43343719876048   -4.44781931225584    9.23511609605905
H          -4.87520767600077   -0.08303020189350    2.26065029388820
H          -6.26441228007705    1.52401341954228    1.21445396624675
H          -6.15753796793113    4.15784597901929    5.42279139899566
H          -5.34008075399673    1.84361974270849    5.38826316702955
H          -6.85811913250023    4.92689193315971   -0.95318873031119
H          -6.25309375628881    3.30541831157288   -0.61677287239786
H          -5.11011245444434    5.88177788004749    0.56683122488727
H          -4.39865548937487    4.94252033779191   -0.74754944449139
H          -4.50168198047290    4.25157434545739    0.86857233309730
H          -8.48467493238928    2.63130130073591    0.13544077700460
H          -9.08855414382524    4.25510405658524   -0.20269883455034
H          -9.28735826960848    2.82504212898317    2.49367278220461
H         -10.60155481185468    3.05365977530641    1.33976592081443
H          -9.89074154374072    4.44779898220548    2.15452912201741
H          -8.23875597823389    6.78917372437350    0.11397248848714
H          -7.85671330282690    8.63106615444575    3.97079256392064
H          -7.06982207500244    6.52175696399251    4.93204148073352
H          -8.83832108511880    9.02456895214395    0.33517979063450
H          -8.43518475060799   10.38133039723329    3.05454507252297
H          -9.48114958400857   11.39781176978527    0.34897520041702
H         -10.26305342491859   13.90708428112623    0.52376318298605
H         -10.52449746268210   15.77993262231959    2.27813092345509
H         -10.66924850933820   17.06139852466668    4.37431902128429
H         -10.45942194329134   17.85260272172489    6.81816806674533
H          -9.57240489735731   17.07351882204572    9.10724405619103
H          -9.18957662662791   17.32296898978671   11.32409943419005
H          -6.39431611821336   13.63311617035290   13.14283512915869
H          -5.76935919514658   12.11753730825139   11.46417713080634
H          -6.60278566484046   11.60787307854440    8.55986437504892
H          -4.68892094167014   10.12312156955597   10.45136252519162
H          -3.03360486494962    5.74884742030807    8.01037885827843
H          -4.93447330169354    8.54353486186834    4.31603756377562
H          -2.54508407693906    3.86665242102486    5.98731648654218
