116
 SCF done       -198.246675140458          0.000419714167
C          -7.84850030358965    0.22764453151575    0.99901948590601
C          -6.64899414344203   -0.29888840188169    0.58310829037531
C          -5.96762695034342   -1.33590663013637    1.24896846661225
N          -5.36838872430976   -2.17906466217188    1.74866896112415
C          -5.90042469019515    0.18638317333496   -0.50749198174838
N          -5.21082545499995    0.56328581828747   -1.34598063294829
C          -8.53693451631057   -0.11460328297446    2.23854373791593
C          -9.60026995205952    0.79993429235306    2.42777801668231
C         -10.41599748177926    0.76620884114266    3.53069618679097
C         -10.17180522168785   -0.21879943164576    4.49384266600581
C          -9.11226423918445   -1.13291136075379    4.29129108458717
C          -8.28626157614791   -1.09924259294462    3.17433042898442
S          -8.98538870374087   -2.26600920313100    5.60338439933322
C         -10.33837559674734   -1.50405343654174    6.39627210581964
C         -10.86037000877170   -0.45700371482309    5.71521296641367
Br        -10.93525176095870   -2.16391515300890    8.04822873448281
C          -9.64841764259230    1.74039259138114    1.28683493151222
O         -10.43384594354740    2.65651177215734    1.15280571518496
C          -8.57629033492307    1.30231793786078    0.36852420394299
C          -8.37854019236912    1.78780928931459   -0.90281072768796
C          -9.01998899678245    2.91967065330562   -1.41722627491108
C          -8.76168088545999    3.42451547374180   -2.66240519484894
C          -9.27755429916994    4.66327969876863   -3.07335870187681
O         -10.03458830410990    5.39547792770677   -2.21696244659920
C         -10.27356506224157    6.60962658218469   -2.76615093016687
C          -9.70047498454358    6.65152255437260   -4.03625391156628
C          -9.06696031754015    5.41096709678564   -4.23570036898221
O          -8.37770428736603    5.02468163828140   -5.32243543420283
O          -9.71221982589817    7.62123803800872   -4.98434755257699
C         -10.98563703849886    7.52304059596190   -1.94490691663982
C         -11.12512672036906    8.86304230207381   -2.08175351407279
C         -11.80811648392095    9.63847161006275   -1.10294259442002
C         -11.88741908875189   10.98498408890709   -1.13777023423707
C         -12.48850811448042   11.82333127498397   -0.12580392822893
C         -12.86869198627128   13.15029348631660   -0.38747240899399
N         -12.89018451628451   13.83890653108571   -1.58720409703390
C         -13.27961395321497   13.23791229074828   -2.85145767313977
C         -14.48048870551831   12.30794108516944   -2.69258295026730
C         -13.16198028319534   15.16783998834783   -1.30057097836493
C         -13.44753041433633   15.31153496634839    0.07420609673965
C         -13.24342522639149   14.01752293215686    0.66458591948290
C         -13.34187896705569   13.55621657897435    1.96796978963695
C         -13.04482849408859   12.22811102108776    2.21722960857742
C         -12.61633546368205   11.39202843940393    1.19931921746467
C         -13.84629208924955   16.53355526408610    0.59681970399704
C         -13.95165640658077   17.61074686350346   -0.26507749138240
C         -13.58363243675906   17.49299448518540   -1.59571230911964
C         -13.11730833387733   16.29201058234947   -2.14396735425970
C         -12.50784752405693   16.30612937298424   -3.45040381221218
C         -11.52256601785197   15.45423470456704   -3.82945218033336
C         -10.88801387901753   15.45455387365841   -5.08676600121757
C         -10.01535202491814   14.48265241222141   -5.49471676432512
C          -9.32088630825470   14.42359734489700   -6.72792690528358
C          -8.53329294857119   13.32659461532073   -6.88020220023654
C          -8.55603501346531   12.43401074539974   -5.78195733009943
S          -9.62481656650554   13.05390153870719   -4.53475314087205
C          -7.85836261993424   11.24982191939318   -5.67979349971033
C          -6.98188070927881   10.71594277542379   -6.65371716046055
C          -6.41945183669907    9.53098194164431   -6.30611696122235
C          -6.80525939542304    9.03441952420859   -5.03312341046936
S          -7.93490968033944   10.17135467054796   -4.29410566137274
C          -6.34222866806956    7.85742677853323   -4.51555480241139
C          -6.59782533839618    7.19835160015291   -3.29275807604894
C          -6.01719768847042    5.96823156885930   -2.96714163767823
C          -6.47263177985025    5.56908293457426   -1.69066492245000
C          -6.17248614898216    4.46775580568075   -0.91847150208065
C          -6.79281986810277    4.36835218017040    0.33429832975960
C          -6.66859282084327    3.42783146739194    1.34853065782959
C          -7.54055275528922    3.78453819062576    2.42234194928488
C          -8.20352227923643    4.94706755758891    2.06669379053451
C          -7.75305327129555    5.36213498785527    0.77633270266438
C          -8.03796489939863    6.46857595382606    0.01744158668376
C          -7.38438146801441    6.59839136485657   -1.22512938616861
C          -7.44280109250949    7.58372456292679   -2.19940863508410
C          -7.70690295463369    3.07888716685205    3.66956104666459
C          -6.99745025789891    2.02444248252332    4.06395232480450
H         -11.21561197250754    1.48018806064113    3.65052065985348
H          -7.49226284813978   -1.81907667562233    3.06463869468583
H         -11.69648270098654    0.12475190906133    6.05811489987017
H          -7.66251293286076    1.29093329173463   -1.54541286313560
H          -9.70749516159198    3.45167476204626   -0.77757406687989
H          -8.10281785847641    2.92017107238554   -3.35406079829408
H          -8.36375011057731    5.76376660724292   -5.94628479125287
H         -10.06682670689948    8.44012423400891   -4.62004517810434
H         -11.40165194835399    7.05039847919394   -1.06429190557429
H         -10.67953604999106    9.40139224209977   -2.90852710301848
H         -12.27372881956232    9.08677823325744   -0.29802682293509
H         -11.42130945709006   11.49969872478709   -1.96661676736259
H         -12.44469627436404   12.69914887555776   -3.30798665566830
H         -13.55609182524293   14.05098630261203   -3.52344478475174
H         -14.22987849359056   11.43396716856642   -2.09747920062433
H         -14.80947294796813   11.97462219735712   -3.67345881764672
H         -15.30144254925066   12.83429494602666   -2.21009870990156
H         -13.63234482915009   14.22175112352287    2.76608062345726
H         -13.11323687185230   11.84230203193659    3.22338357894439
H         -12.32224969822224   10.38391348222992    1.44663247349858
H         -14.07097004600372   16.63590119559879    1.64716909644695
H         -14.28560614200334   18.56733788568635    0.10812151118435
H         -13.60080893204759   18.36959912523034   -2.22728486367650
H         -12.80143976324118   17.10746803415274   -4.11674078730081
H         -11.17634217499617   14.70711040329262   -3.12797912143442
H         -11.11393725314083   16.24912439851989   -5.78556753276915
H          -9.42445373620390   15.20467331854995   -7.46046997382669
H          -7.93675543293293   13.13444659194844   -7.75361369347108
H          -6.78880775968785   11.22312967356285   -7.58130568099318
H          -5.72656810969105    8.98618191239382   -6.92335086621001
H          -5.65160185847756    7.32847348828911   -5.16401783549271
H          -5.33451685294786    5.41529003701356   -3.58519389847341
H          -5.48244180131750    3.70728413586293   -1.25514130600104
H          -6.00252386406321    2.58453550660086    1.33492085533174
H          -8.93385757434660    5.46325482281247    2.66225222163397
H          -8.73277197487379    7.22696019339715    0.35050508370111
H          -8.00429887158294    8.49892406624143   -2.14258408544366
H          -8.47994480854241    3.47365159656261    4.31722072166341
H          -6.20885545893293    1.60231062112522    3.46435361544699
H          -7.17421659082686    1.54818145121534    5.01284156070438
