88
 SCF done       -168.457752690999          0.000570255186
C          -1.29158206994964   13.12048169938039   -4.80826201559360
C          -0.31130427147294   14.04899843330676   -4.60156670928717
C           0.05438600098615   15.02804728896319   -5.55230222747084
N           0.38812588230761   15.84734841130677   -6.28279565467485
C           0.51592872693629   14.13875297255713   -3.45846692099085
N           1.25501517417547   14.27871897190725   -2.59210903176206
C          -2.05130939224813   12.95219658815563   -6.03771256204601
C          -2.77955779929121   11.74182567456871   -5.95513486354222
C          -3.58021091529830   11.28471683716567   -6.97452982888322
C          -3.67674257092860   12.06848998388607   -8.12784327746920
C          -2.95543349032351   13.28598686029098   -8.19754064175751
C          -2.13977527451958   13.74246213375336   -7.17082978247871
S          -3.22639768079813   14.10235519431251   -9.70723300920346
C          -4.28624122795367   12.81505356759335  -10.21810149857063
C          -4.43248517216299   11.82398286438992   -9.30663286795223
Br         -5.10200090606821   12.90228071346764  -11.90386399560145
C          -2.53254450940073   11.09175663475295   -4.65139710354061
O          -2.94311264002914   10.00410112351369   -4.33060707579873
C          -1.69588538403426   12.06014461824408   -3.87962665964705
C          -1.45232904850021   12.09849351509774   -2.55152805764482
C          -1.80259117319997   11.16521605851765   -1.49465176554964
N          -1.57752627645422   11.65101448970107   -0.26525779270240
C          -1.82874530621963   10.84212159541146    0.74915111788619
C          -2.30580638060136    9.55605222714843    0.57324742455926
C          -2.53630259694365    9.13497981953497   -0.74961893028470
N          -2.26583252955006    9.96187609032798   -1.76647634336877
C          -3.05452614066536    7.82885590815292   -1.05451350126239
C          -3.35252995830504    7.49508711046798   -2.33612688473125
C          -3.83467512499243    6.28204404018944   -2.86991219796257
C          -3.78097021077585    5.97680482414864   -4.23343400001027
C          -3.33385209319467    6.74684329691364   -5.32986609814572
C          -3.32765983942660    6.18310667863440   -6.57004855082247
C          -3.74929800954671    4.84367841312797   -6.77490888782251
C          -4.20443500957586    4.07573492694737   -5.74665669641389
C          -4.24213330302642    4.62233718874197   -4.44326668695697
C          -4.61736279795401    4.07605786884373   -3.21721061755155
C          -4.42199866355176    5.11213803034462   -2.19865555320745
C          -4.87242759362022    5.04622959782277   -0.93877919458549
C          -5.11630811113618    2.75123510007086   -2.99762765984373
N          -5.21838508094202    2.28756364906500   -1.74010572971718
C          -5.60723504773581    1.04089060549378   -1.57988978852970
C          -5.90312000579888    0.19718934155407   -2.64116610983030
C          -5.81822342309632    0.77049609240133   -3.91417519185576
N          -5.44913507309735    2.03460453407793   -4.07597205662502
C          -6.08444529322131    0.07153067751514   -5.15887534905819
C          -6.05522632309184   -1.26000030625211   -5.33438254328194
C          -6.26179033466730   -1.90974827845694   -6.59196780522267
C          -6.01764312632867   -1.46134388193373   -7.84749379097357
C          -5.32260139014862   -0.29998999594347   -8.37926550355793
C          -4.25519458180225    0.35130577734631   -7.82235646951339
C          -3.58909374535294    1.42952753480094   -8.43987064863385
N          -3.03634122653095    2.32614949110400   -8.89612314512030
C          -3.64750454415799   -0.01826379008513   -6.60388878413983
N          -3.08354781227701   -0.30226866278733   -5.64624739423649
C          -5.80125255786135   -0.10315126868789   -9.74367962761741
C          -6.55569299382047   -1.23876986366933  -10.13410596675983
C          -6.65112612283621   -2.17342954204081   -8.99765796069520
O          -7.17070611537325   -3.26379992947971   -8.97101744713276
C          -7.09662368077718   -1.36943834881336  -11.39077019773620
C          -6.89517317000463   -0.32624933280480  -12.29998120271489
C          -6.15897357843646    0.81333372642398  -11.89346191865696
C          -5.60492821257519    0.94252491803617  -10.62639059354813
S          -6.04420954365379    1.98778420277951  -13.16794050479527
C          -6.96672409039682    0.94507835167763  -14.21832816674070
C          -7.34538221788268   -0.22183802375710  -13.64450134187303
Br         -7.34410230875562    1.49740641953741  -15.96997156741593
H          -4.11720768317995   10.35339236964523   -6.88250577902789
H          -1.61388883769732   14.67715394233242   -7.27028891557309
H          -5.04831492308655   10.95619597346291   -9.45702963639120
H          -0.94129751741624   12.96400004718650   -2.14670934231413
H          -1.63509879556229   11.24926554339864    1.73377657679448
H          -2.49758839048612    8.90341518598952    1.40985735987311
H          -3.15603389332794    7.14698767520767   -0.22385483426300
H          -3.14189242977524    8.26957705098168   -3.06146157216074
H          -3.00746787087348    7.76336450176288   -5.17409902581878
H          -2.98697824674702    6.75012894845062   -7.42441856182506
H          -3.69164642152306    4.43235604116289   -7.77228639937533
H          -4.52472929005361    3.05760080728205   -5.89369925836527
H          -4.80749712736210    5.88093421424951   -0.26328521115330
H          -5.32425692089808    4.13841736741109   -0.57652824319890
H          -5.68297346993379    0.70158294688055   -0.55341393956740
H          -6.21146898638781   -0.82224816149291   -2.48560420581969
H          -6.26985494849828    0.72947752292026   -5.99766952994118
H          -5.91921321085055   -1.91367908447258   -4.48333191185935
H          -6.72700427668279   -2.89081430132108   -6.54941438382236
H          -7.65719753659550   -2.24951642926238  -11.66393803289973
H          -5.05827047235041    1.83172454743853  -10.36027215037506
H          -7.91853946279766   -0.97913815730513  -14.14730959390036
