82
 SCF done       -167.334397523575          0.005567914458
C          -7.39782467361486   -0.69324856030503    1.32842636783372
C          -6.87086132248334   -1.94921593185234    1.17185116516931
C          -7.62709051708197   -3.13157641218545    1.30336542358759
N          -8.20413776002331   -4.11642836796704    1.43401544212438
C          -5.49697313090161   -2.20176231904003    0.98819638960267
N          -4.38683985968469   -2.47251513533537    0.87173251965636
C          -8.78000571982397   -0.38105997684249    1.67033688504780
C          -8.85392617416757    0.98749614103338    2.02794605794250
C         -10.02349660322584    1.59247868836884    2.41652707695570
C         -11.18216488537845    0.80942393155065    2.44395190206936
C         -11.10046562571499   -0.55641726350363    2.08610598771807
C          -9.91396573139612   -1.17166612572901    1.70273022717646
S         -12.65396066875636   -1.33386749131529    2.17679262634848
C         -13.38176812498420    0.17230369790242    2.67008987145628
C         -12.50798708933478    1.19998882209323    2.77903732026604
Br        -15.23429424662077    0.25129968460210    2.95271015935292
C          -7.51496755145886    1.59649593070804    1.91570340304762
O          -7.21250384601265    2.74731294829554    2.15883738173310
C          -6.63383136990361    0.53479281755413    1.38666424021059
C          -5.37513508853777    0.76133986472394    0.89408131160205
C          -4.57254872196764    1.89148166988554    1.18589634789665
O          -3.67097772627034    2.29611192153458    0.24951689522460
C          -3.04499736877337    3.37733576708957    0.72365285925977
C          -3.46834788263926    3.68784915230056    1.97969064007206
C          -4.44852686854704    2.72145184398259    2.30709304204849
S          -5.19266794225767    2.52193420010094    3.86891417664428
C          -5.19825739248857    0.78226159346928    3.89903965921309
C          -6.17236356683144   -0.03911786826148    4.35438475722537
C          -6.11329298553702   -1.46551770433914    4.27809540339091
C          -7.28001011619560   -2.08239154150966    4.58030016115815
C          -8.32644902956148   -1.19690308275236    4.94872095755625
S          -7.73999942222004    0.46060437136446    4.98074435132590
C          -9.63777401524472   -1.52629623802346    5.19312280505074
C         -10.21996057905883   -2.81780866185511    5.11683932615750
C         -11.55126012532780   -2.83588327871671    5.37619275502092
C         -12.10478538980397   -1.56040346939389    5.66999790635349
S         -10.85160145138764   -0.33069273576086    5.60572728435491
C         -13.41338345643855   -1.28777754200565    5.95070848713085
C         -13.91697518188985    0.00699829170818    6.18673311751275
O         -13.10903206578949    1.08909919456150    6.12519856201283
C         -13.86271569657843    2.17573254404272    6.35669649539432
C         -15.16421102247826    1.83952614420249    6.56452938893150
C         -15.21362048219131    0.42964894038061    6.46789486504951
S         -16.62465950809817   -0.59651057090303    6.49474089366821
C         -17.68058271030543    0.13779650170093    7.62869486911714
C         -17.35090893012191    0.84961591532004    8.74116362719822
C         -18.26381380268039    1.61289965905401    9.56954380288082
C         -19.53140133754814    2.00649166362255    9.23076371287733
C         -20.36385301749116    2.78480951090947   10.06104149873287
N         -21.08444133114636    3.41616030403510   10.69506436592219
C         -20.15350117380932    1.72777989546817    7.99565826467877
N         -20.70629021247439    1.56208247499055    7.00296609325761
C         -17.55008249619978    1.98163751337076   10.78590757987958
C         -16.21412178352601    1.51950573123568   10.68941755111432
C         -16.03567166701782    0.79665590689262    9.41595258189864
O         -15.04653409325921    0.19215907982496    9.05365218045314
C         -15.28898463447518    1.71785350727091   11.68514088826759
C         -15.70209004692859    2.40594777452867   12.83116316137482
C         -17.04022227727669    2.85908458696728   12.92018655704907
C         -17.97587491780988    2.65938470794743   11.91323834674717
S         -17.34132370880013    3.67316193023524   14.42604517518981
C         -15.68720776165591    3.40024737866021   14.90776054853135
C         -14.94684151138674    2.73328685092931   13.99006498789366
Br        -15.09651421937604    4.01585509355742   16.57725567436400
H         -10.04122956890757    2.63430215454552    2.69437345421703
H          -9.90604007515082   -2.21559886421389    1.43445988301168
H         -12.78535134854432    2.19480530358858    3.07481207558462
H          -4.95220400726886    0.07598247602901    0.16986199405653
H          -2.31415232655676    3.83767186567417    0.08793914386863
H          -3.13135508918711    4.48784684155289    2.60539602679126
H          -4.31518878905694    0.33465715072285    3.46554670563903
H          -5.21471590430544   -1.96433664245669    3.95963699101356
H          -7.43046918985960   -3.14559347146291    4.53109933736506
H          -9.64194105315582   -3.68755224428702    4.86256678214822
H         -12.16657287301853   -3.71757035947493    5.36054308306474
H         -14.12367314391710   -2.09920748964516    5.99134808303960
H         -13.36723530794176    3.12592092901956    6.34464262540736
H         -15.98323947745724    2.50118057194970    6.75847301870258
H         -18.71576927209630   -0.04836071150961    7.37982503283014
H         -14.27871004642166    1.35326052562089   11.58298174233712
H         -18.98538992088062    3.01694175594914   12.02974631685055
H         -13.91088298509661    2.47996634025605   14.12466333609657
