74
 SCF done       -144.116628039066          0.000507140802
C          -2.26271872310444    1.43297231303487   -1.95725038121284
C          -2.68662156290754    0.12772418182419   -2.04778264781667
C          -1.86663990688624   -0.95414213838873   -2.42836660881500
N          -1.26361942926484   -1.88472483633134   -2.72799358067012
C          -3.98922747974163   -0.34551872252151   -1.80697280683607
N          -5.00872535222975   -0.85970739736030   -1.66512875272654
C          -0.91649741881465    1.90651529041035   -2.26384253275125
C          -0.87843327442014    3.31166904397432   -2.08786614498976
C           0.25433373381000    4.05403794005283   -2.31132326953483
C           1.40648191330674    3.37826779502182   -2.72974912496090
C           1.35878334960548    1.97508135468396   -2.90166878962849
C           0.21207365349473    1.22324016714070   -2.67464235173377
S           2.89035022703387    1.34247504260883   -3.42576714411760
C           3.56387173952174    2.95049905845266   -3.40793527628174
C           2.68967321440284    3.91257275250729   -3.02870911586509
Br          5.35772291295329    3.20793502143554   -3.89244987777407
C          -2.21112348462712    3.78564782430535   -1.65398253771646
O          -2.52608531792993    4.93459843190573   -1.41880976227314
C          -3.05480809274986    2.57502782443223   -1.57449613308458
C          -4.37837394939124    2.55076090892533   -1.19821015564671
C          -5.16371476351656    3.65687623807355   -0.86084532252751
C          -6.49590581173976    3.47904133289069   -0.56324654982779
C          -7.40582547062819    4.48100616807442   -0.23910875726066
C          -8.74191077025970    4.20209053426597   -0.01006334896667
C          -9.77667161282551    5.08386808426814    0.37212255243584
C         -10.99156716604652    4.47871185070205    0.54093247096777
C         -10.96759573070867    3.09338198437359    0.28800283303807
S          -9.36848307670115    2.57822597624164   -0.17407506998171
C         -11.97410590667203    2.14352056277312    0.40043172595314
C         -13.30262354658719    2.26804042437422    0.85150962964348
C         -13.96437410973979    1.07465669093046    0.94139050001980
C         -13.19287967924152   -0.04463143817166    0.55791250633451
S         -11.60626501150581    0.48137480207710    0.03356688154242
C         -13.49547575832001   -1.38708084722370    0.65891441432340
C         -12.55813335223864   -2.36691637426746    0.32421574450407
C         -12.64407548408230   -3.69818809872532    0.63929861582246
C         -11.65228816345162   -4.65870951134942    0.37482606119331
C         -10.33876979960851   -4.54761896060117   -0.01283726008647
C          -9.37006625491092   -3.47746852808572   -0.08487753309321
C          -9.31898983257713   -2.34788214911410    0.69911972737440
C          -8.39470437259835   -1.29552126008522    0.55147788437883
N          -7.72896468643094   -0.36309551933618    0.46477957904129
C         -10.18713776249247   -2.12409813097059    1.78441002413053
N         -10.84909469714003   -1.91822776191038    2.70019319866039
C          -8.29603918334172   -3.91414252688889   -0.97531359526097
C          -8.48035825232746   -5.29076912637490   -1.26332792186087
C          -9.71658417020654   -5.76008487810499   -0.61576993747320
O         -10.16814161677217   -6.88394387781697   -0.60193208431913
C          -7.59882843883876   -6.01107278373968   -2.03082597471356
C          -6.48702252817705   -5.33969897296322   -2.54984253670109
C          -6.31491297369192   -3.96281911637766   -2.26492874947723
C          -7.20203842704929   -3.23524300071016   -1.47870346779725
S          -4.87734998894673   -3.33471226975252   -3.01096214938017
C          -4.53583911568927   -4.90565706615885   -3.68280440331288
C          -5.44560398803026   -5.85747991240749   -3.36607801448777
Br         -3.00869392722559   -5.13737511281841   -4.74129515263127
H           0.25340133590846    5.12358845495953   -2.17057239525618
H           0.22564968236669    0.15597067295556   -2.82056405848791
H           2.93742781394699    4.95625643088626   -2.96262586692600
H          -4.87641401383024    1.58968608850091   -1.16589905245795
H          -4.72137022481096    4.64194696926319   -0.85804853892930
H          -6.87908243798789    2.46386487334760   -0.58869160355927
H          -7.07225884354476    5.50657338954371   -0.15968626021926
H          -9.59593185262693    6.13341852701920    0.52362695918278
H         -11.88886625527889    4.99081036233936    0.83936534489716
H         -13.72829370589144    3.21930267681701    1.11671818320936
H         -14.97657512447901    0.96711388582795    1.28907034936039
H         -14.44260396810999   -1.67281415035824    1.09412413575525
H         -11.68714358596811   -2.02509297185297   -0.22004738226147
H         -13.55345295722744   -4.05751359474703    1.10285928802852
H         -11.98243255563990   -5.69387069114530    0.42186051790405
H          -7.75903885371692   -7.06049186012492   -2.22208046399286
H          -7.01800397531857   -2.19006553775976   -1.29110664111828
H          -5.38769179924955   -6.87962280691318   -3.69271204060360
