109
 SCF done       -187.169418733799          0.000974130149
C         -13.74550505986636  -18.14532944507750   -0.98787825219361
C         -13.69191152154891  -17.17158244013034   -1.95935292208814
C         -14.30006156726822  -17.28376188427815   -3.22489029819230
N         -14.76797329440829  -17.31406731324593   -4.27378244034815
C         -13.02622651312316  -15.93505879657022   -1.84997448324386
N         -12.51288065315353  -14.90649662525045   -1.84790771588664
C         -14.42380712753129  -19.43313258760770   -1.12738387750806
C         -14.23097502362967  -20.17792179000805    0.06116098274960
C         -14.75313630039784  -21.43446290403518    0.24119013310022
C         -15.50463692166132  -21.98508485950522   -0.80322083793811
C         -15.69154936661227  -21.23444108368285   -1.98640534088487
C         -15.16182976074793  -19.96219724179501   -2.16841812344694
S         -16.65215722679549  -22.10006255189808   -3.14803411958176
C         -16.78758444237405  -23.44043650006514   -2.04118640789157
C         -16.14755443767533  -23.25222675278001   -0.86333079649324
Br        -17.76061481062366  -24.96301112358535   -2.54641859023384
C         -13.41949392101680  -19.38197201486835    1.00749476687972
O         -13.06607838734901  -19.72937573006580    2.11831454866264
C         -13.15060409184760  -18.10428791389033    0.32257946438129
C         -12.47062981261140  -17.04141129084884    0.88369573319666
C         -11.90643986005440  -17.02821779156366    2.15435960206435
C         -11.29056312859573  -15.91078889133872    2.68567081309219
C         -10.70736354514786  -15.79276697894527    3.96754409109757
C         -10.20846573769177  -14.55309161796299    4.24337928720115
C         -10.37273784550911  -13.63054314009344    3.18894353179181
S         -11.16477068898897  -14.39343167892164    1.82620314892210
C         -10.02568397139306  -12.29181016417006    3.16249885433727
C          -9.45249079544916  -11.51508299028287    4.19556626278792
C          -9.28691336487617  -10.20186182244446    3.87931340447651
C          -9.71201671011509   -9.86661695458455    2.56889300821099
S         -10.31943700587160  -11.30915832790087    1.74992854038066
C          -9.69802175403796   -8.62734033058362    1.99697506364519
N         -10.08634645771634   -8.40198201761002    0.71998810466365
C         -10.20842548578989   -7.22057840074680    0.04935133744856
S         -11.14408854080635   -7.26978178631837   -1.42206233140064
C         -10.99133169730995   -5.55067539273947   -1.56991095091442
N         -11.58256982962089   -4.92997868599494   -2.67316385806035
O         -11.48033453739043   -3.71961180210500   -2.76428158183688
O         -12.16356254602272   -5.65522042533863   -3.46399190766247
C         -10.26892073742601   -4.98913227071114   -0.55041795112349
C          -9.78268489039059   -5.92931154462107    0.37607510924903
C          -8.91776526400329   -5.50987759679183    1.46436916639845
C          -7.81811113929323   -6.16222780042907    1.87081515750722
C          -6.93488845262002   -5.77457311955890    2.95014529916930
C          -5.77187713533943   -6.53141710032946    3.16179801711974
C          -4.92543277481124   -6.20935963052756    4.19313478502796
C          -5.21665622020982   -5.12992561613337    5.04507080209827
C          -6.36293478288611   -4.37382306919105    4.84641191121103
C          -7.20858562397969   -4.70048909604552    3.80581561486692
C          -4.17143347694663   -5.03290042559582    6.03988332449126
C          -3.23223346849280   -6.05081926931354    5.80305001786709
C          -3.63583067337010   -6.87963485035671    4.60526897848306
C          -3.86860719594989   -8.35203010016221    4.99099720374937
C          -4.91436546349108   -8.51695034208097    6.08733301123102
C          -2.58014810451297   -6.79930377888152    3.48700425849450
C          -2.29238109987354   -5.36873254563080    3.04766479504810
C          -2.12956402347521   -6.18334797191694    6.60908383455767
C          -1.93489869034227   -5.30145550693483    7.68539184054402
C          -2.88324071974129   -4.29228713100572    7.90465890074208
C          -3.99183440978703   -4.15111611679683    7.09591930291608
C          -0.76390920937602   -5.47663890585594    8.51045719331190
C          -0.45206636010795   -4.78914271551373    9.62666352701854
C           0.72157804116643   -5.00079375672306   10.40872034668267
N           0.95879207143063   -4.28106605125759   11.54538026105349
C           2.13996794002147   -4.66587251403223   12.10910532420460
C           2.67864427672177   -5.66597836764308   11.30692024583271
C           1.79621939584573   -5.87278344850447   10.25067642411944
C           2.63646412015035   -4.10081250309151   13.28194833682053
C           3.07075169561694   -3.62228925912901   14.30643905047159
C           3.56843893286174   -3.05383241555605   15.48774191402282
C           4.71144047240778   -3.42572621644223   16.06086135008464
H         -14.58950218349572  -21.97668854837618    1.15923951753163
H         -15.33522136149199  -19.43086375448874   -3.08901025395761
H         -16.12816887225622  -23.97476519378628   -0.06793334032025
H         -12.37398982766068  -16.13311463480114    0.30129949992629
H         -11.95998877150589  -17.91840213928672    2.76400611429572
H         -10.68116622792223  -16.62588389960908    4.64705323771362
H          -9.73442162646232  -14.28357862882881    5.17013420519266
H          -9.18912130900928  -11.94577195980930    5.14434812213870
H          -8.87298797645836   -9.46096156885973    4.53970088956588
H          -9.37210117383009   -7.77560996895457    2.57211702871523
H         -10.42721052481732   -9.21725163457151    0.21928028862439
H         -10.07423475580460   -3.93305285225399   -0.49592765221409
H          -9.17516052995850   -4.55077271705863    1.89053206949732
H          -7.53106673070096   -7.06963379461252    1.35170576426683
H          -5.55453593335871   -7.36341508182542    2.50622558787837
H          -6.59452981591336   -3.54380077899741    5.49697864874575
H          -8.10430020909181   -4.11693808733985    3.65898621046206
H          -2.92183398817555   -8.77897055063002    5.32778647350597
H          -4.18487859726448   -8.90200998898841    4.10167731847793
H          -4.60595149880031   -7.99710841356369    6.99164955016484
H          -5.04746778748145   -9.57048014325685    6.32340001761858
H          -5.87209551137983   -8.10996019057145    5.76902656056523
H          -2.93211700339264   -7.37814205844625    2.63014767531511
H          -1.65729026881014   -7.26054616125666    3.84485870670579
H          -3.19412475505186   -4.89441227087080    2.66644191949233
H          -1.54148739919734   -5.36292032609324    2.26103676852536
H          -1.92136194596229   -4.77831575403716    3.88241445330553
H          -1.40367902473269   -6.96385149794531    6.42865939039484
H          -2.74470931680770   -3.60081104996155    8.72131083500685
H          -4.70711973186085   -3.36367259943646    7.28305699852629
H          -0.08365300515531   -6.25181093928308    8.18379459810474
H          -1.11509053406336   -4.01580274981059    9.99356444600370
H           0.35237134616072   -3.56903929606888   11.91860748666325
H           3.60627449201768   -6.17336389674225   11.48384813265106
H           1.92221960755954   -6.57771436779871    9.45332629208125
H           2.95545769869391   -2.27231378566781   15.92180403594168
H           5.32845423381458   -4.19935588303068   15.63584706702973
H           5.06039753149916   -2.96578174829291   16.96895213899675
