112
 SCF done       -207.693932054980          0.000476619103
C          -8.58125410755721   -1.23247092255889   -1.76048735647833
C          -7.82837397670913   -2.29463445395650   -2.18260357718782
C          -8.34250890041400   -3.58813445952935   -2.41116387538151
N          -8.71537114592868   -4.65099985313910   -2.63075565630377
C          -6.43917425724490   -2.23800929353306   -2.42391862678350
N          -5.30649056876308   -2.26333910160969   -2.60826706953491
C          -9.98932993056635   -1.26428528272026   -1.39321192007565
C         -10.36647699888267    0.00842924285315   -0.89481379144336
C         -11.63857191220828    0.28607877172491   -0.45779176709616
C         -12.58529463454486   -0.74175825761456   -0.51287085267947
C         -12.20290041041276   -2.00757929717749   -1.02019966299059
C         -10.91708969559858   -2.28814606400130   -1.46243519600587
S         -13.53022084820406   -3.12827403737024   -1.00935939772192
C         -14.56567400292258   -1.90111209889991   -0.32977936041983
C         -13.95127548774037   -0.71187860769348   -0.12174745185941
Br        -16.35901402649434   -2.30549283389475    0.03780735178721
C          -9.21609244826054    0.92815646957774   -0.96900221012118
O          -9.22151289888751    2.12071788694964   -0.76184489652855
C          -8.09687295551986    0.11932320371715   -1.52985955185977
C          -6.92476480086784    0.66630069658569   -1.92861891570172
C          -6.52023402280503    2.02042917018116   -1.59815685282048
C          -6.27134999410359    2.91839793018470   -2.64761026500294
C          -5.96879408658970    4.24169285215608   -2.41732472098251
C          -5.84361626005718    4.72275118907823   -1.11576439599015
C          -6.02153571969517    3.84654559406426   -0.07256401955141
C          -6.36507451027713    2.50327616897335   -0.29639006462912
N          -6.38205850892482    1.82400925099930    0.90547341303084
C          -6.60400751862145    0.42358870122126    1.11921839303270
C          -6.08317875634500    2.65702698210399    1.96007429569857
O          -5.97361828644300    2.30368906042576    3.10623489887206
C          -5.89981176790811    4.06349171053503    1.40401360749846
C          -7.00759695971712    4.98032909068580    1.96812485280948
C          -8.36135290034760    4.48185687039327    1.44999279926526
O          -8.88520557677450    3.42335704948566    1.70230731644320
N          -8.86608750573105    5.44562398443281    0.62518778648153
C         -10.09706482536490    5.29947908035874   -0.10270076722249
C          -8.04846061107313    6.56275065253767    0.58438089314784
C          -8.21346659650136    7.73364616592301   -0.12441390997127
C          -7.25797343841787    8.75005272217943    0.02719262818453
C          -6.16170527038367    8.54776649357651    0.87268838722592
C          -5.98955511456162    7.35523286738488    1.55756031202595
C          -6.93532937938084    6.36416109016773    1.41318541101766
C          -7.43208981300632    9.98284598488061   -0.71060650326336
C          -6.83689694291124   11.15765809178977   -0.42547549060402
C          -7.02266078934435   12.35089201079353   -1.17921550962314
O          -7.74866514618336   12.36461074577266   -2.33117331704628
C          -6.55772551522985   13.62826141131222   -0.94357262987943
C          -5.76342957566986   14.45124016598847   -0.02919826015503
O          -5.17420352346288   14.17135309814673    0.98373760238664
N          -5.81917374003576   15.71919768964993   -0.60144336294286
C          -6.55579129179354   15.81040426642489   -1.78610064443873
O          -6.71250232870441   16.82148115219709   -2.42301884935083
C          -7.03094887264579   14.44717381725384   -1.99886534323058
C          -7.76158336810876   13.63009406344474   -2.84740073058943
C          -8.41799095988880   13.91757965390497   -4.06111512299174
C          -9.01817610514915   12.96104002656440   -4.83036996053029
C          -9.64725849305381   13.20521847490041   -6.05606904433819
C         -10.18351480280386   12.21212869357386   -6.84339709369589
C         -10.81619382880490   12.34743003652569   -8.10075756806470
C         -11.21819660873340   11.16889056343594   -8.65932915420138
C         -10.92604009416095   10.03719484893632   -7.87189156415141
S         -10.13149680731567   10.51855655320693   -6.38837907024386
C         -11.17276830363927    8.70363392335677   -8.14297068676787
C         -11.77367719509411    8.11233974093044   -9.27145355484627
C         -11.84321694796338    6.75081715817387   -9.21121728923840
C         -11.30879813786099    6.18124252364487   -8.03115417171592
S         -10.70247216015552    7.46520514038576   -7.00108249794356
C         -11.26702005869391    4.83484879279550   -7.75303147341302
C         -10.80007171139262    4.14598862832371   -6.63007677321649
S         -10.87887059498867    2.38271536506793   -6.69886772142840
C         -10.22756124432262    2.14891897310228   -5.10614735230471
C          -9.95711343549787    3.39122396818573   -4.54115472866209
C         -10.27226726709323    4.49901768804731   -5.38309427801881
N          -9.97164905220292    5.60305300189998   -4.65822695644199
N          -9.49880686344754    5.28183770995005   -3.44297001154572
C          -9.47568961636686    3.97700638472108   -3.34308177932445
C         -10.03275678883555    0.87230821101105   -4.50769293136641
C         -10.32545734053309   -0.30311783838144   -5.07046822528197
H         -11.89153573456408    1.26318062101561   -0.07771498801078
H         -10.67484271140661   -3.26637100735135   -1.84326496426198
H         -14.43972289453983    0.15156389377433    0.29142066798732
H          -6.27443093606117    0.12275946971799   -2.60317490301932
H          -6.37281133741248    2.55765568073619   -3.66086090072924
H          -5.82509732342078    4.91108552748646   -3.25056691088778
H          -5.59299106245891    5.75625332289338   -0.93497849019233
H          -6.01144455324800   -0.17013105247230    0.41975746399413
H          -7.66202175672505    0.17126761223637    1.00824820223799
H          -6.29794507100566    0.20727980699464    2.14366205571168
H          -4.92619137934588    4.46572353829478    1.69706691598775
H          -6.96861679347095    4.93401535461394    3.05982405344550
H         -10.39071398225613    4.25399216096269   -0.02583070429756
H          -9.94167420415041    5.55825117061852   -1.15062871247844
H         -10.87743783451015    5.93371788483179    0.32502076150673
H          -9.06122752742154    7.87838403301759   -0.77521520620096
H          -5.42043226637833    9.32346703026103    0.97558469768233
H          -5.12894446377656    7.20951907909843    2.19288169565051
H          -8.12133019307740    9.94434783526039   -1.54425935858262
H          -6.18532842891804   11.27673797205154    0.42713664960324
H          -5.35549386723028   16.51736285570972   -0.19219140111860
H          -8.39797199421884   14.95198834799299   -4.37003956101855
H          -8.99268163096698   11.93600756558886   -4.48127477419581
H          -9.70478928715812   14.22232111994603   -6.41892564973808
H         -10.95111640287770   13.31247932866514   -8.55630434928748
H         -11.71150005373724   11.08630384577918   -9.61132102299871
H         -12.13523051078720    8.70095806735378  -10.09510141802489
H         -12.26766643992868    6.13269160865226   -9.98259118383313
H         -11.66112392261377    4.19744475545553   -8.53572968553084
H         -10.05224945296131    6.57149162649536   -4.91779217787686
H          -9.14099449337611    3.50215396703606   -2.44372193233586
H          -9.61396954055450    0.91845931642541   -3.51103569378279
H         -10.74325431602474   -0.35951570896841   -6.06171021422223
H         -10.15771068834550   -1.23417373913767   -4.55907312547318
