97
 SCF done       -188.355719269804          0.000711660106
C          -4.17802438983446   10.88985253222078    0.59775718770696
C          -4.31501637075028   11.73613927948447    1.67183274880834
C          -3.94118646958233   13.09462285489614    1.66412673611402
N          -3.64540100954808   14.20263536959054    1.72616597687675
C          -4.83825791070857   11.36509504210871    2.92623676475926
N          -5.26115427298149   11.13226476071465    3.96877684969194
C          -3.68469616025983   11.26739376072670   -0.72356145166327
C          -3.67884174589887   10.12136003078309   -1.55539624770679
C          -3.28402094112934   10.16027411607344   -2.86912836888060
C          -2.88809059644678   11.39476930527567   -3.39407659011664
C          -2.89452957222811   12.53415985384662   -2.55577719580713
C          -3.28431296318766   12.49255160138273   -1.22266409081038
S          -2.36350515540405   13.95474041472564   -3.40468854003584
C          -2.14579952510629   13.01127989745355   -4.85440881059500
C          -2.45270556676786   11.70041112064196   -4.71287584266920
Br         -1.53018002791827   13.84495336300300   -6.41732234313235
C          -4.13535167272357    8.95499802671836   -0.77863077973962
O          -4.01491009594160    7.78853169865135   -1.09203864409373
C          -4.56019352893458    9.49992821451659    0.53893255482463
C          -5.14251079798280    8.74503874248722    1.52739101826108
C          -5.85564889867254    7.57627577866972    1.22996399398306
C          -6.50850465815571    7.29104011270429    0.02507051988362
C          -7.17311471625515    6.02338437304276    0.02783309278799
N          -7.80350588686930    5.54721569632312   -1.04258105047169
C          -7.79373307879997    6.31581370434690   -2.11962525071693
C          -8.47247248756893    5.79493709049979   -3.32363861895162
O          -9.00951438443771    4.70357493719685   -3.35517068525979
C          -8.48079561711771    6.70817397797812   -4.47860404176840
C          -7.94408152321044    7.93316686121796   -4.45980961090776
C          -7.25834590065668    8.50394641194295   -3.28870304440335
O          -6.72126545897742    9.59250851589939   -3.31773458360210
C          -7.21981565384387    7.62403718770316   -2.09349457858865
N          -6.61275897915281    8.10135900296555   -1.02951629287300
C          -7.06036152912084    5.35893774501196    1.25973555948767
S          -6.15083808927377    6.29582751850430    2.39349316457265
N          -7.57525365922490    4.12495050413861    1.43696359783122
C          -7.51025046796156    3.28846571430609    2.49551272832065
S          -6.72952729013388    3.73858732271580    3.97766667163239
C          -7.09866965373662    2.16507157034736    4.61631235412565
N          -6.67967307928715    1.88185332273635    5.92192167730046
O          -6.93051908179213    0.77853275898828    6.37103425992272
O          -6.08901036003473    2.76952567246613    6.51232770247451
C          -7.77511456950462    1.35678381280254    3.74649918378849
C          -8.03587030487311    1.97728168227722    2.50508220158496
C          -8.72312298054602    1.38498963094898    1.41025782843200
C          -9.12457373090502    0.07985409795541    1.36472320843982
C          -9.80980351473702   -0.49304987059492    0.28866623594189
C         -10.16920868078968   -1.82311994113711    0.23804720891718
C         -10.87487675487906   -2.48601340792805   -0.78994545988760
C         -11.07955806446634   -3.81739826033422   -0.56183179913437
C         -10.53957368323304   -4.27623633743406    0.65453350823940
S          -9.77066324333732   -2.95988590453508    1.51186017707558
C         -10.55177922881368   -5.56071515806146    1.17605584459362
C         -11.13594303307556   -6.72271000014255    0.63120898521284
C         -10.95912289980501   -7.83622631231426    1.39806857483807
C         -10.22124469180588   -7.62364083463581    2.58841786663380
S          -9.77126445494473   -5.92821940413866    2.69149515604374
C          -9.90489437498619   -8.59373819772373    3.50810168495529
C          -9.15832205085333   -8.48403643435993    4.69653960941800
C          -8.89103161339852   -9.55737034027124    5.55846016601461
C          -8.10519627968175   -9.09417895772774    6.63722040570893
C          -7.57546901102269   -9.73873167276232    7.73678458819015
C          -6.81783305942735   -8.97651245998442    8.63587961228772
C          -6.16055578801852   -9.32090232882689    9.81154655394629
C          -5.52672435594767   -8.15975524638209   10.34956703763748
C          -5.79399657428007   -7.09490966918653    9.50468505035098
C          -6.59856009505878   -7.55614208270084    8.41850039358302
C          -7.12320881708174   -6.90924674149576    7.33234123184683
C          -7.88596459339716   -7.67389019086275    6.42270603924633
C          -8.52599518847119   -7.31836400591189    5.25255993673744
C          -4.74061442517553   -8.08099379273829   11.55746801432823
C          -4.48211726583401   -9.09423945357275   12.37953358272295
H          -3.29203446155727    9.26981423384297   -3.47726135997141
H          -3.26988814520079   13.38897651722841   -0.62530803695085
H          -2.37727589781430   10.97710322315495   -5.50426493140660
H          -5.10044835296209    9.05802227272948    2.56183954967685
H          -8.96642235675029    6.32124120958981   -5.36445734919016
H          -7.97674116557463    8.57477036020210   -5.33020710710475
H          -8.05090436240786    3.78172010824957    0.60267270734626
H          -8.07227172161135    0.35938283549982    4.01244495621093
H          -8.93840835496188    2.00603597722817    0.55017544616367
H          -8.90106569904203   -0.57375232802651    2.19672739991309
H         -10.07584414300958    0.12902913857278   -0.55525950761997
H         -11.21110121716771   -1.96124748887566   -1.66654173466832
H         -11.59725638962356   -4.47348153660075   -1.23843119568420
H         -11.66845509423543   -6.70856241060889   -0.30257357663328
H         -11.33442876672977   -8.81177614747001    1.14283351366207
H         -10.27669802168926   -9.58640109015194    3.28123712709423
H          -9.22742986358486  -10.56847016948556    5.41960397515305
H          -7.73402391635079  -10.79468474797267    7.90369721300781
H          -6.13191097457370  -10.30298446306161   10.24645385773155
H          -5.45636209589460   -6.08299214367568    9.63496966992303
H          -6.96619251746226   -5.85366309015359    7.16258613044844
H          -8.54546844666052   -6.33287541949214    4.82735758324377
H          -4.34390928328326   -7.09804237775205   11.77809346512266
H          -4.85260136521929  -10.08921457966266   12.20177458165506
H          -3.88395487223332   -8.96148581312475   13.26404652551839
