117
 SCF done       -229.313022278855          0.000905496779
C          -7.76584390266114  -10.93704328092303  -12.05457004827865
C          -8.86133824593833  -11.27387303093231  -11.30209541594094
C          -9.50660154587843  -12.52543787876598  -11.37187211469836
N         -10.06692025715920  -13.52738557451440  -11.38860184083737
C          -9.53107779480137  -10.39824813391312  -10.42051069515647
N         -10.15435458043032   -9.73423435189758   -9.72157536889228
C          -7.15547124172271  -11.76175804851824  -13.08914774494186
C          -6.20775050893308  -10.97685935347940  -13.78894588814361
C          -5.46331799651917  -11.47147565544237  -14.83170335329972
C          -5.65919250278992  -12.80747450994801  -15.19741414983544
C          -6.60399427531611  -13.58601456525383  -14.48751484946851
C          -7.36112284882072  -13.08406064617889  -13.43613943707571
S          -6.67712393348466  -15.21254952857856  -15.09504331770573
C          -5.45479805157752  -14.82932457192813  -16.27809401291591
C          -5.01397788940253  -13.55026102945001  -16.22401747901671
Br         -4.87460178045588  -16.15443239442674  -17.47191320953442
C          -6.15421124796769   -9.61766541647603  -13.20558419236826
O          -5.45207512987725   -8.70993306662251  -13.58713836007060
C          -7.07834820189852   -9.66011109871769  -12.04061936718710
C          -7.12685631135504   -8.76435146021562  -11.00931179670679
C          -6.52645813076032   -7.49154357846990  -10.92848540509776
O          -6.07738045956515   -6.78996037764255  -12.00115116797454
C          -6.29020988098274   -6.72933755430595   -9.79035588320654
C          -6.39126610224509   -6.72132716254182   -8.31775233209300
O          -6.83681040723837   -7.54402576581691   -7.56170756833097
N          -5.82541940781761   -5.50825541420122   -7.95388836872207
C          -5.35340016274512   -4.74485954703947   -9.01267932955948
O          -4.82530525445343   -3.66313663618505   -8.91521335645600
C          -5.65645008072152   -5.54706532419837  -10.20280616215171
C          -5.54195350159029   -5.61432538323536  -11.59503389936657
C          -4.99112841843218   -4.73664510967591  -12.54462675152027
C          -4.37896433720116   -3.55961196492133  -12.19967436176412
C          -3.76597792554222   -2.70265843774780  -13.11711303175504
C          -3.05380719864813   -1.57782169273275  -12.75378038705482
C          -2.33159609980611   -0.70823178711423  -13.60592785484852
C          -1.63775977360973    0.26791295616425  -12.95166045758880
C          -1.78877545359969    0.22500189088126  -11.55005423578249
S          -2.86284881591054   -1.07774356614744  -11.08873498653844
C          -1.17982153976319    0.99831141625849  -10.57599862917128
C          -0.16647331298009    1.97531457273431  -10.69635970571329
C           0.29368739674009    2.43588654960633   -9.49921551710458
C          -0.33542239571227    1.85708848616119   -8.36499727577416
S          -1.58006382641421    0.73980186939892   -8.89723378112475
C           0.01700227773572    2.02582038002345   -7.04965023111625
C          -0.59568078485320    1.38470376555688   -5.95231410302285
C          -0.06236906828844    1.18361432896274   -4.69518963885458
C          -0.85090288272800    0.36658130404846   -3.86116586174765
C          -0.55272142691316   -0.13620752540089   -2.56974779022418
C           0.70380685050787    0.10346328161402   -1.89642076659245
C           0.91530871825426    0.23810593722821   -0.55082290758811
C           2.27250600371371    0.38338004021585   -0.20726247134529
C           3.11115961056312    0.34699415437448   -1.27870826212139
S           2.22250398085165    0.14972164815572   -2.75312315737259
C           4.59291425811582    0.45516336598986   -1.30084692925259
C          -1.51953785968035   -0.95223467582335   -1.98951422631636
C          -2.76563337347710   -1.23947752329313   -2.60545257350119
C          -3.05806917088603   -0.76779791428824   -3.90336877262398
C          -2.07220818975491    0.00601777340999   -4.49349026213117
S          -2.17084613507803    0.63934826992685   -6.10608830199830
C          -4.23828190966187   -1.17690434966765   -4.63434970141155
C          -4.31248508302211   -1.54501361394642   -5.94950005729593
C          -5.60531376389250   -1.92051055118448   -6.35896147007547
C          -6.53523057576214   -1.84042795031880   -5.37117829105439
S          -5.81569695054023   -1.28930162475339   -3.89022143694675
C          -7.98161021401610   -2.17317023341255   -5.42757810152086
C          -3.50453071611003   -2.18750195384615   -1.88409471354860
C          -2.85383195619206   -2.69954960445452   -0.79086011378122
S          -1.32869303470387   -1.87712364122131   -0.52111812192266
C          -3.30185654697723   -3.77344149464956    0.01525046632087
C          -4.21413589892332   -4.71719089122653   -0.35893325871293
C          -4.80435327066452   -5.03083132902051   -1.64657541073442
C          -4.20880844225942   -4.91774855346914   -2.87967232015399
C          -4.85070158568054   -5.12000724167096   -4.11027425067602
N          -5.32269928188324   -5.17300891699516   -5.15723369405143
C          -2.85528317023079   -4.55931204253065   -3.06210358835450
N          -1.74488614337887   -4.35562786828388   -3.26871484875862
C          -6.06190134317956   -5.71793760393648   -1.39032219401902
C          -6.12993594650478   -6.04038647726613   -0.01061442940222
C          -4.93651725436093   -5.50163398393889    0.67728666319249
O          -4.63650532789422   -5.62196125642090    1.84232039500301
C          -7.18215767284147   -6.73967590570140    0.52745532046901
C          -8.21727550500329   -7.12728321842765   -0.33144572078398
C          -8.14274210404483   -6.79264174922944   -1.70578763554053
C          -7.07299000123482   -6.09594125531351   -2.25331762623686
S          -9.53051914053120   -7.36237921359669   -2.58104409136876
C         -10.18246900751633   -8.03732654648479   -1.11220066681366
C          -9.40304159218556   -7.84580508272287   -0.02041429956798
Br        -11.83316331362001   -8.92506069259120   -1.15369883661618
H          -4.74954618049556  -10.84849468719518  -15.34761636122219
H          -8.06414262265397  -13.71713505826576  -12.92098447130970
H          -4.26347214694632  -13.14584123499124  -16.87839611850558
H          -7.63728101525140   -9.04723760547151  -10.09684516266163
H          -5.70341730859272   -5.24676586241548   -6.97375418190043
H          -5.04229150519043   -5.05638772754274  -13.57547252940904
H          -4.33862789192168   -3.28551433290881  -11.15246765038092
H          -3.81130539995875   -2.94652852681295  -14.17054646576473
H          -2.33290381793407   -0.84071976185578  -14.67352091724653
H          -1.02585234489067    1.00737270887583  -13.43677727153181
H           0.21377778594589    2.28840300249064  -11.65235810494459
H           1.07845198048444    3.16371298248851   -9.38983578013542
H           0.88031028144182    2.64209941881406   -6.83581621195131
H           0.89287894292392    1.58651262141946   -4.41320348300414
H           0.11915842065228    0.26866033764632    0.17086528212302
H           2.61561306449293    0.50739877286132    0.80442054552186
H           4.97278392664592    0.55224974666164   -0.28671698452462
H           4.90880241709287    1.32324215607778   -1.87942697534466
H           5.03576178119264   -0.42858476283024   -1.75958703594354
H          -3.46321857759342   -1.59901100891736   -6.60508381546324
H          -5.81807618732779   -2.24962747012395   -7.35894798272075
H          -8.19959169646085   -3.04591943874127   -4.81083363562485
H          -8.26746707342390   -2.39292841426738   -6.45319741460980
H          -8.58646244429144   -1.34532018884550   -5.05908110685013
H          -4.49812332660292   -2.48847395724177   -2.15624373490638
H          -2.93505839158507   -3.83537770499917    1.03326477191130
H          -7.20744291748600   -6.98345148476725    1.57786721008871
H          -7.05387252881520   -5.86384226591203   -3.30576135377987
H          -9.65383794188631   -8.19589686057932    0.96414832130958
