98
 SCF done       -193.109549439135          0.000360164020
C           1.21657599324824   -1.54367316384403   -3.04864567817435
C           2.30999389703564   -1.71723500948884   -3.84740717999750
C           3.62824212694496   -1.87931571613590   -3.36613787538216
N           4.71729289131324   -2.01383636861083   -3.03142045148461
C           2.27840322922425   -1.74038870009760   -5.25980634104299
N           2.33328342534605   -1.76156498530464   -6.40553786263806
C           1.21027640082138   -1.48437963554852   -1.59475080570334
C          -0.10690943702220   -1.21679323244321   -1.14056425589060
C          -0.42085607480432   -1.10132635944167    0.19278126680796
C           0.60958291967292   -1.26024885438016    1.12411093219164
C           1.92195739452627   -1.53025085703612    0.66238205961967
C           2.24087430019626   -1.64469923962958   -0.68355711988393
S           3.04143794772971   -1.69370824028305    1.98066049492386
C           1.75218364690794   -1.40117594684983    3.11769125883670
C           0.54373157830765   -1.19157427521860    2.54201657166083
Br          2.12251738227482   -1.39979534784700    4.95495900837727
C          -1.01366219879230   -1.09913629325852   -2.29586915142757
O          -2.19407913604853   -0.84412099382533   -2.28401765467108
C          -0.16284589982238   -1.35749477762991   -3.49814434557946
C          -0.67624579025889   -1.42576329432972   -4.73389676972376
C          -2.12319146177873   -1.23778213189677   -4.96103812277564
N          -2.88316693328660   -2.32433705191527   -4.86995567089251
C          -4.18624731861297   -2.14089385951358   -5.01859509342056
C          -4.73835120496497   -0.89653111899415   -5.25386224173392
C          -3.84710671355296    0.17774011465895   -5.38295556898268
N          -2.52982410956193   -0.01686137627799   -5.24537161096985
C          -4.31478459936586    1.51606511200993   -5.64429566320028
C          -3.45314093617520    2.54251592772296   -5.82928624253698
C          -3.74049924427019    3.91539799562213   -6.01499433772366
S          -2.41751412884430    5.02260086696552   -5.83449066605242
C          -3.43205428200777    6.42653402182426   -5.91867975378037
C          -4.76322445743791    6.04265262784400   -6.19361198157350
C          -4.93375856900263    4.62348497698899   -6.25786571882576
C          -6.19214740437083    4.09697561817113   -6.60408744847757
C          -7.23009936491002    4.94945967761542   -6.85542749289675
F          -8.42799735141524    4.45226148317112   -7.19869685326817
C          -7.05639614660977    6.34728772748400   -6.80102032727859
F          -8.09055373671420    7.14805017631882   -7.09721003513005
C          -5.84212550648842    6.89303919271754   -6.48930768412045
C          -2.87167551130978    7.69253370516782   -5.68125280558827
C          -3.54816189093334    8.78194773121217   -5.19331956859363
C          -2.96549859181466   10.03087230629299   -4.97382792971163
C          -3.60061705979091   11.05784127376955   -4.30618618766984
C          -3.11295126640028   12.35921207542080   -4.05926349034905
C          -3.95134014726289   13.13847503201981   -3.31396281091571
C          -5.13631080324868   12.48315100045893   -2.92154105388302
S          -5.17979719231895   10.86384595651604   -3.56521313329944
C          -6.14705570957958   12.95588661321385   -2.09623980736172
C          -6.25527683985274   14.22083782028178   -1.48587180867666
C          -7.34596502804917   14.34438353519121   -0.67257660529488
C          -8.14236354441600   13.18124713669483   -0.59611178369410
S          -7.48527575222366   11.93436089420321   -1.62710486393705
C          -9.27025108747156   12.99905885251295    0.18382206792342
C          -9.95394786774125   11.79157761625121    0.25548721397877
C         -11.05676772652671   11.46556971019178    1.01615050539806
C         -11.32900558824337   10.03388328767401    1.28544728678497
O         -10.81923053728273    9.08097631007291    0.73501718395284
C         -12.29956279778376   10.02176190257680    2.39747227673792
C         -12.79718657025368    8.95894871740849    3.09240906561003
C         -13.68829059796744    9.19263528311313    4.16447717348957
C         -14.04290144108722   10.53224581769293    4.49508062534824
C         -14.92072939945249   10.75978990141772    5.57226577658244
C         -15.41361588360468    9.69449138317377    6.27335590414209
C         -15.07917729199306    8.37019486683553    5.96229023010779
C         -14.22744045443063    8.13163585053848    4.91942735174211
F         -16.25205954592798    9.91082384351706    7.30499250734767
C         -13.51862486866762   11.61459610136883    3.74809861191754
C         -12.66344751647535   11.36266980369633    2.71102909303872
C         -11.98973903974110   12.25782491856753    1.76700347014484
C         -12.34901512747900   13.56623234006290    1.53675787843859
C         -11.89949185877238   14.33814147266903    0.44820262825447
N         -11.60389076747875   15.00437164281141   -0.43989673040332
C         -13.29893731456566   14.26601663505708    2.30538482589384
N         -14.04623513724580   14.89720640044575    2.90789248720214
H          -1.43252336462161   -0.89631595586956    0.50603954850215
H           3.25389164952537   -1.85329227900961   -0.98472396516530
H          -0.35774963653134   -0.99712391817058    3.09375737066366
H          -0.07355237844974   -1.63305068111959   -5.60660486090488
H          -4.79501334137635   -3.03221450993964   -4.93736943331877
H          -5.80316114331653   -0.75617252944729   -5.34445931992671
H          -5.38440059356482    1.64854838006775   -5.63514693034247
H          -2.40057973037027    2.29263433573266   -5.76949733169322
H          -6.34829790699735    3.03912149033068   -6.71904156503048
H          -5.72471542693274    7.96285929876748   -6.51549487213480
H          -1.79964729433045    7.77242623154158   -5.81207838212655
H          -4.58004262504674    8.66741269182925   -4.89133306772404
H          -1.96022766974160   10.21131245928666   -5.33068146718530
H          -2.15860671030237   12.68243473387732   -4.43596947019596
H          -3.73981968291221   14.15295672677672   -3.02834393584920
H          -5.53479396266184   15.00093885749091   -1.65385125651253
H          -7.59935428679473   15.23310835791592   -0.12287649236024
H          -9.57941501957446   13.83815683401823    0.78887136591319
H          -9.51853548518891   10.94867680220597   -0.27509865681346
H         -12.51229537126305    7.95082209702547    2.83090292958968
H         -15.20292741169592   11.76647724632247    5.83847161935500
H         -15.49922232736414    7.56982033116680    6.55060142839820
H         -13.95405824989779    7.11976867943299    4.66014457916569
H         -13.80170540453274   12.61728789581302    4.02624299397347
