88
 SCF done       -187.930550195167          0.000992871297
C          -7.15730367512836   -2.84707563676437    0.15206235159839
C          -6.37085255883992   -3.44436083579138    1.10130649609042
C          -6.29294803853328   -4.83880253538090    1.30159570590527
N          -6.18702185294570   -5.96357780051800    1.50491251822772
C          -5.55037356069887   -2.75557814081811    2.02000911627758
N          -4.87026804307016   -2.27063545343699    2.80766345112299
C          -8.06150223798164   -3.53128317605545   -0.76228374467044
C          -8.77480642767615   -2.56271215257977   -1.51077443958148
C          -9.70104227788894   -2.90077632574873   -2.46760125764579
C          -9.94126149259502   -4.25998965418142   -2.69295369107405
C          -9.22354378510095   -5.22124519302246   -1.94072712241518
C          -8.28339114167138   -4.87974249555168   -0.97686921386933
S          -9.66606762165835   -6.84093777702039   -2.38689963683196
C         -10.79539477975746   -6.21424338543370   -3.55813652240480
C         -10.83956923191526   -4.86186014284094   -3.61564632912601
Br        -11.80642379626427   -7.40299417618925   -4.59700141463243
C          -8.33182972677654   -1.21003682082604   -1.12316506452549
O          -8.66858270745390   -0.16941428294110   -1.64288170182848
C          -7.29579825984727   -1.41827385198039   -0.07338856136497
C          -6.50082967231581   -0.43327855757133    0.41789046351827
C          -6.75929240039245    0.96907620426964    0.26043600156169
C          -5.73458686993491    1.86484803816294   -0.01277780365977
C          -5.98500062416717    3.19883035898085   -0.30505955015625
F          -4.90745080971782    3.97222281453322   -0.54827678013584
C          -7.25399942336398    3.78206219252026   -0.30596396415550
C          -8.29211187565273    2.91711899893410    0.14740383183497
C          -8.05766126293704    1.52294113480679    0.40496995729672
N          -9.15727993081715    0.90353589586535    0.82358268208869
S         -10.36851878160389    1.95520531097160    0.84743535985758
N          -9.56103161865313    3.25622246888495    0.35227438975005
C          -7.58319017200816    5.11079357318966   -0.69309463282307
C          -6.98149527232756    5.88509867414529   -1.64779937980145
C          -7.38418094400726    7.20477873363149   -2.00212674911177
C          -6.73892949557417    7.71702159214433   -3.08220450477907
C          -5.79962179470702    6.82531347328178   -3.65590571506904
S          -5.72594189803591    5.34245540869952   -2.74402809430704
C          -5.03845176288829    7.00081951709254   -4.79634382127784
C          -4.99168805340951    8.11256611996981   -5.66728001990340
C          -4.17375992183095    7.93209564650268   -6.73988290466767
C          -3.53049985463826    6.66532269763511   -6.78742515691114
S          -3.98838247207511    5.73137671544100   -5.37918226408882
C          -2.73241187957762    6.23892298142422   -7.82016861073441
C          -2.09837135608280    4.98962907235981   -8.00443102178952
C          -1.99733115492634    3.96548893031629   -7.06014040316679
C          -1.41992476264457    2.74677030462817   -7.36748285757259
F          -1.37720519967858    1.83034306929353   -6.38471220599660
C          -0.93524777676476    2.37680594135174   -8.62683594124187
C          -0.95795779925706    3.42135307031150   -9.59006358798064
C          -1.51132320772804    4.71065705179121   -9.27652167800707
N          -1.41853966427634    5.55358969941373  -10.29768071838016
S          -0.69846342676275    4.81247484880512  -11.52980057408030
N          -0.46960837040729    3.37930659192889  -10.82718494387425
C          -0.41523152699340    1.06984962933368   -8.84955552217573
C          -0.27728300823980    0.37532077112004  -10.01065354304722
C          -0.80049755302062    0.57501838906165  -11.34213241528051
C          -1.96778812928652    1.21364104253562  -11.67300643295941
C          -2.44530393160756    1.35251933890768  -12.99079494565718
N          -2.86959547668559    1.52281798128399  -14.04403953205237
C          -2.86698069674010    1.74695094802559  -10.72929399229518
N          -3.65040324174165    2.16986772609750  -10.00396512696050
C           0.00370120923017   -0.23363927213936  -12.25150475400214
C           0.84272221637635   -1.08205044997695  -11.48561010631266
C           0.64638326980312   -0.79251454884147  -10.05038253999404
O           1.15499689118409   -1.35010852938014   -9.10583658415111
C           1.68827703283958   -1.99858331911359  -12.06137446449825
C           1.71595421791278   -2.07333124355488  -13.45824403814311
C           0.88638113462376   -1.21062593011651  -14.21380397408603
C           0.02361424117937   -0.28966774380524  -13.63176737599930
S           1.08735859047878   -1.46478113936012  -15.92080170159352
C           2.26383216817953   -2.71175947389131  -15.60085381362646
C           2.49682062423313   -2.92755864523858  -14.28472164081818
Br          3.07286196130111   -3.60982511012718  -17.03477423180253
H         -10.22357360401373   -2.13946939102959   -3.02530950020563
H          -7.75571364250951   -5.64856277556632   -0.43760637260833
H         -11.47637341608534   -4.31018099379540   -4.28273714260020
H          -5.58044552244784   -0.69207226807418    0.92623003584234
H          -4.71342542857317    1.51857219075341   -0.06562652392656
H          -8.48635171747052    5.50229974164882   -0.24240353592244
H          -8.14180031332420    7.72234701395494   -1.44095532255557
H          -6.91765477216528    8.69574419374790   -3.48960400641207
H          -5.56385188142404    9.00414808869893   -5.48446249142259
H          -4.01644567870186    8.66232911462932   -7.51363098925752
H          -2.60909069038647    6.93057959725186   -8.64390038479898
H          -2.36521344987963    4.09622733654942   -6.05626735825162
H          -0.03041821146163    0.56364393398645   -7.96830281686725
H           2.30954193525262   -2.63855974969662  -11.45467772719432
H          -0.58840882574576    0.34960276589224  -14.24630726865626
H           3.18984595107003   -3.65834795711246  -13.90942160097622
