100
 SCF done       -201.332505239211          0.000754514534
C           1.03795216653885   -1.51625241054599   -5.89882755662518
C           1.78305024250964   -2.40917411947894   -5.17436920364607
C           2.53078949556591   -3.46200199791242   -5.74071844796500
N           3.15376313483793   -4.33523433456689   -6.14857867489332
C           1.89098981884083   -2.38614721479139   -3.76872460978948
N           2.00048297898935   -2.40038761906698   -2.62639324471092
C           0.89106864954162   -1.50427332560370   -7.35255324265584
C           0.03553813050537   -0.43231680806512   -7.71943106183124
C          -0.29623337909780   -0.16169744294676   -9.02563070883775
C           0.23862106217838   -0.98812848400758  -10.01879234614190
C           1.08983638683623   -2.05549396625459   -9.64452793308761
C           1.42696206300506   -2.32765435981644   -8.32292411440659
S           1.63578375930050   -2.95100670253700  -11.02747150631736
C           0.72633439764330   -1.89617213003531  -12.07675616646986
C           0.04792790481360   -0.92080280412653  -11.42523930815477
Br          0.75578412085434   -2.18089376981211  -13.92983343742656
C          -0.38846329951273    0.26675859054208   -6.50474744204113
O          -1.13477334709405    1.24596946018521   -6.43374989667653
C           0.24799241766145   -0.42039233912938   -5.38374839575455
C           0.06391003425544   -0.00490118997334   -4.08380923645446
N          -0.73328600571918    1.03654589844963   -3.83324890756776
C          -1.01465856708750    1.62227127211126   -2.64164499631809
S          -0.24695117863691    1.14067251898894   -1.16344208607117
C          -1.11251188206588    2.39696419423619   -0.34037198178088
N          -0.90146793285011    2.53591005253187    1.04082591219067
O          -1.50536511358651    3.41960879867908    1.61612323573965
O          -0.12297489549104    1.75416237283593    1.55472566286361
C          -1.93385946212414    3.13243173339619   -1.15103107119152
C          -1.90177850903590    2.69841835485939   -2.49087035347427
C          -2.65950592750284    3.23219223511079   -3.58960088585180
C          -3.30287534169075    4.41908595906023   -3.57885457501047
C          -4.02630863260044    5.01561607638671   -4.65189091025367
S          -4.86952727969819    6.49807010390479   -4.29326324353418
C          -5.41278945868241    6.65637790877480   -5.93424106751643
C          -4.97857527151297    5.58663528967296   -6.70584842998768
C          -4.18886663557393    4.66991980267156   -5.98834594954435
C          -3.61006955673731    3.44805474167769   -6.63016019078619
C          -3.72074152565695    3.46880530591490   -8.15945165489687
C          -2.63923973397417    4.29399885044631   -8.84634336934244
O          -2.87665829032997    5.03075341195782   -9.77161571818603
C          -1.23528481917804    4.09423791546850   -8.33422383633662
C          -5.12341031569318    3.91635380186625   -8.56341756892180
C          -5.35302728348833    5.36210430133344   -8.13392105200413
C          -6.19195010299530    7.79573558584751   -6.29193064442810
C          -6.29427917763675    8.26621291090873   -7.55421184247470
C          -7.04597356883595    9.40434069583652   -7.96308934071064
O          -7.65637070402718   10.22298780590155   -7.06170103866623
C          -8.18209097537724   11.25437643808403   -7.70189499898219
C          -7.94459606636483   11.14869756751940   -9.05389390067791
N          -8.32502053975301   12.05827043156684  -10.06240846950569
O          -8.98372731654159   13.01986828322089   -9.74045172681905
O          -7.96060263430908   11.80508361004416  -11.19977235731523
C          -7.21508622388391    9.93173450413756   -9.24154230166338
N          -6.77736261495345    9.47207207910150  -10.45359863217257
C          -6.43530731312897    8.20812227355064  -10.74398147414633
C          -5.76144817194437    7.74823541980467  -11.83587834476730
C          -5.03903258836152    8.40609779707277  -12.90111100386640
C          -4.50851388617098    9.67253182829338  -12.89204999982538
C          -3.78373142110867   10.23463565016811  -13.96342381732639
N          -3.19603207533771   10.74837378641545  -14.80488398429045
C          -4.51609793806234   10.52702100703538  -11.77252269945734
N          -4.45919225013296   11.22617225019234  -10.86255830353270
C          -4.78490004149000    7.40086732746976  -13.93044927443641
C          -5.17326166149806    6.12956643826061  -13.43750740138464
C          -5.76884879227110    6.29025935469917  -12.09874362328783
O          -6.21224841966164    5.42703792628423  -11.37143768077690
C          -5.00411492347011    4.97460053675393  -14.16084222016171
C          -4.43858163959627    5.07826341534312  -15.43621207411740
C          -4.07217854428920    6.35388293887618  -15.92691201133459
C          -4.23327905847120    7.52180705144667  -15.19158250406005
S          -3.40604255671870    6.25611280782531  -17.52854000824622
C          -3.62024221034814    4.52599698867786  -17.51588796190381
C          -4.16461648288971    4.04448547730227  -16.37304128892439
Br         -3.10566293272989    3.51783242320718  -19.01175091051737
H          -0.94799048190932    0.65980624543511   -9.27959998381463
H           2.07983975246244   -3.15179723011734   -8.08941761304048
H          -0.56156263642013   -0.18427541045007  -11.91604588302212
H           0.54061552889891   -0.48829428548910   -3.24144158757879
H          -1.14938865747403    1.44692281185042   -4.68899502793306
H          -2.54105906190581    3.93465505392875   -0.77438975643685
H          -2.69964271845857    2.61414577034295   -4.46932365645485
H          -3.27637749725610    5.01701856636869   -2.67752892682590
H          -4.15499199884022    2.57274198990866   -6.26061712187964
H          -2.56772911690563    3.33230530071185   -6.33932082219114
H          -3.54902717025726    2.44381713507388   -8.51375377357308
H          -1.07428118817241    3.08431817763665   -7.96786009587309
H          -1.06608249533396    4.79196649911519   -7.51440617017984
H          -0.52432535318948    4.33025829372172   -9.12255768053585
H          -5.85794524934836    3.26143458131292   -8.09104547288744
H          -5.25028766588636    3.85902246284345   -9.64421649395748
H          -6.40109896985197    5.62655101469849   -8.28718039286340
H          -4.74558463702207    5.99862454219998   -8.78257222667509
H          -6.69644139915928    8.31082755861975   -5.48571420608519
H          -5.71472243944599    7.81284144270521   -8.33821034964645
H          -8.69609742884715   12.00961544957552   -7.14046546446116
H          -6.74431335019725   10.19154998427577  -11.17565632333647
H          -6.80790988588443    7.44541120284333  -10.06932230153394
H          -5.29929040655018    4.01933523342725  -13.75623333999158
H          -3.94128803425323    8.47056027718563  -15.60987187088880
H          -4.36615772574858    3.00356678800061  -16.19745204588111
