95
 SCF done       -195.826949202599          0.000780279044
C          -4.31155447918262    1.16818867517282   -7.88397687514747
C          -4.22528546344031    2.49781846292340   -7.55439080922792
C          -3.28408857099394    3.39078333951739   -8.10692486805648
N          -2.54129750146526    4.16135160877357   -8.52114080567167
C          -5.08026760241147    3.14689961874869   -6.64328741114649
N          -5.76365206640111    3.72469801810330   -5.92189776913026
C          -3.49146152953286    0.47087802552566   -8.87008556731500
C          -3.93588305446334   -0.87421349496317   -8.97431222175964
C          -3.36154916309729   -1.78029903410560   -9.83228240757136
C          -2.29711901944872   -1.34179694206612  -10.62722888779396
C          -1.85895309761071    0.00008248495565  -10.51628080314486
C          -2.44048294239018    0.91709873747150   -9.64809089234944
S          -0.53303169748535    0.32919996023851  -11.58747971010211
C          -0.58337331929429   -1.31569568835725  -12.16379235227321
C          -1.54445712867864   -2.07475207758598  -11.58366370154951
Br          0.63402330164818   -1.87523225273513  -13.47491715842157
C          -5.05338685866567   -1.07850554361054   -8.04488932582197
O          -5.68949176888729   -2.10562111966072   -7.84437033079727
C          -5.25544375519170    0.20650534490176   -7.36540174784253
C          -6.19456487484248    0.36236558841539   -6.37942857515945
N          -7.01070594353934   -0.64783802612632   -6.04328968781674
C          -8.02074387295984   -0.61577575096268   -5.12785554930373
S          -8.46295200990252   -2.09474064753726   -4.33371371286259
C          -9.61792469794330   -1.21883026271408   -3.38518125279137
N         -10.39150978982855   -1.93224158139126   -2.45470412831456
O         -11.18286089439277   -1.30016422803497   -1.78280148394740
O         -10.20513481604763   -3.13286379956380   -2.39434210366195
C          -9.65982772344978    0.11822953569127   -3.67027978638969
C          -8.75621946790835    0.49110304484593   -4.68707113606545
C          -8.66719567014428    1.80762851517164   -5.26024261867550
C          -9.05229028965253    2.94131590495202   -4.63889184615136
C          -8.96104116566266    4.22273686852747   -5.25468931038151
O          -8.58288646174544    4.28986884464282   -6.56476728971060
C          -8.59307201255136    5.54652731266709   -6.95746348893478
C          -8.98929918649574    6.36736512128178   -5.92688711885214
N          -9.14222672109661    7.76483022227062   -5.97802894877549
O          -8.83230566054660    8.33280720427339   -7.00210589849639
O          -9.58969403990134    8.31318778175788   -4.97909949499709
C          -9.22492659491724    5.51575502042072   -4.79243099407097
N          -9.63453810901038    5.99253894645809   -3.58874455464100
C          -9.64396167994543    5.36548399118990   -2.39131672147961
C         -10.23284194174907    5.89156863539700   -1.27786570322207
C         -10.25886303467166    5.31863963125633    0.01999876821062
C         -10.95212699722689    6.05066885923578    0.93219166759542
C         -11.51593814204916    7.23949018031140    0.41119557940636
S         -11.12498269524389    7.41344114330768   -1.28094773093914
C         -12.29548364875158    8.16763371920644    1.07771139200691
C         -12.71238182882290    8.13834827853159    2.42581117272242
C         -13.50130965360843    9.19331467947618    2.77760766205469
C         -13.74800864349228   10.10644958675294    1.72719235192349
S         -12.92873997838456    9.58924860580900    0.27502626898429
C         -14.50979562496842   11.25653267704651    1.80388304107363
C         -14.73553106941341   12.10132909706185    0.72346464935868
C         -15.44631735813287   13.28215134022407    0.69478270298150
C         -15.93773392594168   13.78756078658494   -0.60776692633641
O         -15.62122606866475   13.39017901918883   -1.70897536989887
C         -16.92792044586863   14.83159382807771   -0.27546637700476
C         -17.74004362260178   15.54273726280344   -1.10890069409731
C         -18.64991091212094   16.47306809514149   -0.55667986278421
C         -18.70006758499695   16.64205157786231    0.85692427885527
C         -19.61548331573892   17.56259114193844    1.40238738368138
C         -20.43116229601345   18.27352000164395    0.56678883684279
C         -20.39555177030864   18.12348374817781   -0.82548692880791
C         -19.51306730143263   17.23290123555713   -1.37146716890584
F         -21.30774609774048   19.15431012593568    1.08726873138286
C         -17.83802733845912   15.89580580230450    1.69594454272755
C         -16.96024834694942   15.00811839523138    1.13740761284516
C         -15.94791030326383   14.13456346150659    1.73601143448242
C         -15.45377631054232   14.27397016026005    3.01316730950509
C         -14.29381578891826   13.64038526312769    3.49868332002590
N         -13.33475160130532   13.19247407295269    3.94595021596852
C         -15.98840333991213   15.15843254680551    3.96955541229798
N         -16.38941244010758   15.84269083854539    4.80090557673055
H          -3.72218599278756   -2.79521211386522   -9.89052258992353
H          -2.06979754201809    1.92733069582566   -9.59904945384969
H          -1.71573284126025   -3.10891224239036  -11.82028693706443
H          -6.28698018823094    1.28329910815215   -5.82238431182333
H          -6.78937261859818   -1.53720242706181   -6.52103805419635
H         -10.34786967136304    0.78610670858750   -3.18556552315008
H          -8.27461782415645    1.88146611267647   -6.26350047399374
H          -9.44124622353611    2.90673730491175   -3.63495057970365
H          -8.31941547401964    5.78307329467520   -7.96714409387845
H          -9.90682750497151    6.98022566753477   -3.61257943216285
H          -9.13509416580711    4.41665410135237   -2.32158487368325
H          -9.76724128019298    4.38626370381398    0.23290750431194
H         -11.07820021242310    5.76971973709404    1.96169420719283
H         -12.42728768577682    7.34726003233159    3.09556947921196
H         -13.91044088655863    9.34909603074586    3.75967250848508
H         -14.96495358547781   11.46797831382632    2.76012988027357
H         -14.38935764195801   11.76359321833820   -0.24977481092261
H         -17.69147728149126   15.39722911766652   -2.17769328971204
H         -19.66825541852059   17.70669341619629    2.47027934041597
H         -21.06308198980355   18.71185882074910   -1.43488057731432
H         -19.46661976009917   17.09910558585321   -2.44187099945308
H         -17.90364738382149   16.04239428583738    2.76226927729476
