106
 SCF done       -190.569115968230          0.002121045845
C          -4.15519991623902   11.24188387962671   -6.37749909426299
C          -4.32161610515661   12.59075162730558   -6.55966238281013
C          -3.71029979092890   13.32901327532611   -7.59248347999064
N          -3.24089150302579   13.96621365441811   -8.42449893328175
C          -5.08922221954253   13.41299417639463   -5.70876835039581
N          -5.67705763156547   14.13619752188011   -5.03808498923312
C          -3.26410192057585   10.37296382658367   -7.13409029588521
C          -3.25151749361023    9.09469776539121   -6.52332350737056
C          -2.49634681816294    8.05407981545578   -7.00573239576078
C          -1.71309267941489    8.28606466357883   -8.14162301794058
C          -1.73463430305572    9.56537816009394   -8.74548081603411
C          -2.50019779180623   10.61804534634763   -8.25960160303269
S          -0.70259158608199    9.63061468728358  -10.14219362058290
C          -0.26066938237807    7.96174387900284   -9.89800233286292
C          -0.85355854401043    7.38352610063867   -8.82683189594883
Br          0.93937061240930    7.13941577188872  -11.08307243090000
C          -4.15799735615331    9.09357859341708   -5.35547260669313
O          -4.43249170262580    8.14203562536567   -4.65761661443659
C          -4.74544899017627   10.45427495079051   -5.31873309098852
C          -5.82423314002040   10.79596636554909   -4.55896714445507
C          -6.27924326679944   10.09586597130684   -3.41445382730659
S          -8.01737685603475    9.92492004790072   -3.22745284083276
C          -7.82629454134188    9.04883192217329   -1.74143214020969
C          -6.50159488100901    8.94722745731465   -1.40068188348982
C          -5.62111589512722    9.54081070010489   -2.33573931424319
C          -4.18636271846253    9.59245128012637   -1.89661891126757
C          -3.21664710737004   10.29743446583544   -2.79836410728839
C          -3.12648372929720   11.61066343909033   -2.90196321992840
C          -3.72150066462519    8.15619968559093   -1.57823986709631
C          -4.76653208037463    7.33528561182681   -0.80273428478364
C          -5.90984120483654    8.19776652745196   -0.25754352539491
C          -8.99501428006100    8.52044830506582   -1.06592239028165
C          -9.29767736793220    8.71092392094256    0.22129464931144
C          -8.51850652271587    9.58546850186233    1.14559203695002
C         -10.51702623174194    8.03395669285617    0.81115011325324
N         -11.46224219704106    8.96988955651758    1.37727071882977
C         -11.54226370496314    9.32298350206630    2.66990327313688
C         -10.81200388581992    8.79319878452943    3.69593501552229
C         -10.94126972533391    9.17670796507772    5.03564890348490
C         -10.15300038951853    8.65022451019723    6.03262595135177
C         -10.11027651412564    8.98509154753360    7.40265660400398
C          -9.14764416823905    8.32494453344767    8.11280962304675
C          -8.38653739611880    7.42680156592213    7.33687628097832
S          -8.93983477299256    7.42024122529003    5.68975842237874
C          -7.28263834564416    6.66524764310697    7.69459304690580
C          -6.51841942722635    6.66336135999319    8.87293008326332
C          -5.37433987127502    5.91916555965065    8.77577211852808
C          -5.17403191118035    5.31002769546277    7.51738000488030
S          -6.53490030460214    5.63975298037537    6.49069896287675
C          -4.08723126333186    4.50884893806987    7.17606664325676
C          -3.77291948668989    3.88691125668361    5.98072641680897
C          -4.28218266560320    4.00823818197625    4.68762101113093
C          -4.15664315058269    2.84979977811356    3.77764065736135
O          -3.52379932312778    1.83125586990886    3.96280580703931
C          -5.00585024963032    3.17248591184219    2.60336964243788
C          -5.32206258922984    2.40740313600230    1.52118222326771
C          -6.21362428627435    2.92448984448124    0.54943076012350
C          -6.76968546579559    4.22223637139561    0.73303423090683
C          -7.67824177524080    4.71847838095163   -0.22152413125798
C          -8.01062589269459    3.96792861815976   -1.31451871122294
C          -7.45383238054050    2.69046935353818   -1.50132737146943
C          -6.57451755355845    2.17756037093940   -0.58728816878900
F          -7.79714566315570    1.97266445073578   -2.58348234258895
F          -8.88373432207628    4.45258728706686   -2.21561927862790
C          -6.40698669921133    4.99706155808666    1.86031055743995
C          -5.52677640814900    4.48515809838025    2.77104134077836
C          -4.96011700796923    5.04810845700743    3.99683820279747
C          -4.95138623826029    6.40044026277033    4.30408240834158
C          -4.13583309804888    6.95124990410758    5.30775809739917
N          -3.46586423203979    7.43912245510849    6.10370041141578
C          -5.67625736842779    7.36274034847117    3.59193121195742
N          -6.28024623516386    8.18273820965208    3.05465652740638
H          -2.50676814248250    7.08971082868583   -6.52207362624913
H          -2.49008378711377   11.57304162845030   -8.75733431154642
H          -0.69347527962895    6.36239432118267   -8.53158334645545
H          -6.44209177237846   11.62948864887850   -4.87479288525263
H          -4.20838232163639   10.15325485307525   -0.95048121198250
H          -2.54071306739093    9.66343802871941   -3.35616080053228
H          -3.77911835096372   12.27225443376510   -2.35745771642493
H          -2.40493136354808   12.08402496065308   -3.54650789385553
H          -2.79206777443740    8.22422249542387   -1.01023411749467
H          -3.50496399324153    7.65740774535751   -2.52280548770551
H          -5.20124582966967    6.58478542352335   -1.46598899326264
H          -4.29224992648565    6.80600139641019    0.02516526648047
H          -5.52800443800154    8.88852328263498    0.49876838213223
H          -6.65957516056624    7.56888523428253    0.21806153704507
H          -9.66292964633311    7.94677925955916   -1.69803808226733
H          -7.86750094278954   10.24826060853606    0.58454757482758
H          -7.90189443331093    8.99887139851393    1.82600389888344
H          -9.18962235644030   10.18718119786384    1.75638540986093
H         -10.20413268542134    7.34195879585163    1.59613506339315
H         -11.03223017749717    7.45961236390860    0.03568786040638
H         -11.97695104368900    9.51943121930574    0.70645310561775
H         -12.28015750158101   10.08539960075694    2.88656264921202
H         -10.05620342540660    8.04972479975484    3.49058648479981
H         -11.66674353362025    9.93282006421089    5.30488959752926
H         -10.77888240215131    9.71536248862752    7.82404928823830
H          -8.96347059364382    8.46355245242011    9.16272088947378
H          -6.80255870070031    7.22891528748136    9.74202626322970
H          -4.64807229817666    5.82282085046012    9.56293274878719
H          -3.42820623847974    4.29036882298048    8.00798480806780
H          -3.04258182245869    3.08611690294561    6.06043974394412
H          -4.90626167798820    1.41817115739446    1.40462728490399
H          -8.11744096306494    5.69702592553648   -0.09981700939690
H          -6.15970110668709    1.19388489222105   -0.74263803718985
H          -6.84656566382837    5.97315894171815    1.98323862266135
