92
 SCF done       -182.665987398146          0.000902616025
C           7.78148004506255   -0.50165388259760    0.98365792103994
C           6.64856191863875    0.24393012082461    1.18821445866649
C           6.53133286039067    1.32344413785612    2.08837949187762
N           6.29063216736396    2.20686120175073    2.77961187375030
C           5.42987868235484    0.07457838103777    0.50755260184531
N           4.40137267209824   -0.03231539850971    0.00206744128638
C           9.08075724406583   -0.22327325676725    1.58323507894282
C          10.08270088010680   -0.83038126418499    0.79984932588569
C          11.41975941943545   -0.69016538318101    1.10808125734990
C          11.75836981575988    0.03374766170887    2.24590966069749
C          10.76227658910790    0.55634041199805    3.07822751121933
C           9.41560998667637    0.45389480007431    2.74178512926813
Cl         11.19623758551642    1.33954289834888    4.53731322046402
Cl         13.41225130661741    0.26364101035553    2.63661706198560
C           9.45186699302134   -1.64077748036262   -0.26160271074482
O           9.98696974310525   -2.27272671414630   -1.14222579876511
C           7.99198908054641   -1.55905371521845    0.01456230290044
C           7.16505693977488   -2.52994247936503   -0.46390900286158
N           5.89863592964021   -2.72570422391048   -0.05589683715142
C           5.02408421856474   -3.70973643130349   -0.39412926286047
S           5.34409034099060   -4.85914342617213   -1.64406913907545
C           3.74579281756465   -5.50365215784572   -1.43272243005136
N           3.37473558846708   -6.58650141533198   -2.24003630881077
O           2.25500401170846   -7.03915904120975   -2.10145239301377
O           4.21380366410290   -6.99175422796704   -3.02567296831752
C           3.01613435703404   -4.85850547531897   -0.46929262932549
C           3.74202155076228   -3.83330634933037    0.16116187788528
C           3.22138861967268   -2.96877346337902    1.19702671250262
C           3.97769792680133   -2.44937256119524    2.18340247556055
C           3.61067446691341   -1.39680398881677    3.07362447059301
C           4.53605048086562   -0.67038823317116    3.81863495050236
C           5.88097826219277   -1.06586015627701    3.84312961123991
N           6.95364204763757   -1.47179952536761    3.78419846465874
C           3.95865481604587    0.45260718276773    4.46374178955062
C           2.58675883422555    0.50766335458780    4.23369519519703
S           2.00081080396511   -0.74474830612138    3.20498771866484
S           1.77865804424397    1.85364918122779    4.96723126806709
C           3.32277073332765    2.39712543816481    5.54999494957957
C           4.39327725240499    1.57965036783473    5.21767273298135
C           5.62927646499505    2.13434732891304    5.64744013309059
C           6.84484675822705    1.44660439140478    5.57930622079975
N           7.82627653301899    0.84981202948379    5.55937793876648
C           5.47914489822373    3.37438756669142    6.26017637865991
S           3.78190837742645    3.82032585692383    6.40731788884452
C           6.48658060497325    4.26050045693553    6.71371317026080
C           7.68785584641087    4.45447521872399    6.07795125468205
C           8.79606954115118    5.20597275418487    6.55161589137028
C           9.85386555830323    5.24319443030680    5.69371603225678
C           9.62767432644812    4.55586551032043    4.48173644943650
S           8.02263355877454    3.86717558377980    4.46183772125847
C          10.48902079624186    4.31282368190172    3.42768594388438
C          11.88353251105058    4.52236941274697    3.35022090121815
C          12.46901097126704    3.96532463723181    2.25316453987749
C          11.57013092057232    3.30381949712609    1.38183564399781
S           9.92345279669334    3.49529360046225    1.99281594391832
C          11.76080921006379    2.51731822597850    0.27572095997821
C          12.95539341074531    2.11341247140193   -0.36005615354866
C          12.93829547954582    1.09924926871334   -1.38636655336108
C          14.22605749012785    0.86656432312765   -1.81455430376802
C          14.74501618534320   -0.01947751544806   -2.78736732892438
C          16.09327426804584    0.00375713369331   -3.00851752318466
C          16.92670202032212   -0.73157753243771   -3.91109434548333
C          18.23445258572133   -0.31692299847655   -3.75051049222226
C          18.25821737376173    0.69177917560957   -2.73318279442124
C          16.96831161537470    0.90013571888666   -2.27134664814110
C          16.45729722140912    1.77253234181819   -1.29500064611851
C          15.10010895339300    1.75474042169949   -1.06819516440529
C          14.28243327887687    2.50088158521112   -0.17997700316682
C          19.36405009315021   -0.82173065940412   -4.49340837053926
C          20.62409033495416   -0.41773696065303   -4.35643967989652
H          12.18348498905943   -1.13392928645773    0.48914302452019
H           8.67089841531785    0.85122326848265    3.41460394078206
H           7.57872875170556   -3.25649556788804   -1.15313587078725
H           5.50044959966835   -2.02809505163996    0.56718262603519
H           2.00820192032577   -5.13649981160430   -0.21949970527364
H           2.17270176198599   -2.71412194402566    1.12817919385362
H           4.99355046146224   -2.80004986674602    2.32941621586070
H           6.26296360635359    4.87102971573474    7.57819327115314
H           8.78337583826234    5.66622769139228    7.52389057316677
H          10.78116417322962    5.74894481466432    5.89704760040300
H          12.42161057589770    5.03115290488194    4.13013544319739
H          13.52651393635542    3.98876745827400    2.07124833484752
H          10.85856818915643    2.09569697599329   -0.15249007910253
H          12.04837832072006    0.60735304349813   -1.73751489970428
H          14.08414642119431   -0.68095040149282   -3.32949430290051
H          16.57807643438288   -1.47975644503916   -4.59931367593595
H          19.13779174107522    1.20311741172411   -2.38723192531447
H          17.11585156288366    2.43365689175310   -0.74936220565217
H          14.65382103963329    3.25185750279845    0.48943386316498
H          19.12503585502080   -1.59182391449934   -5.21643482151834
H          20.91096464146430    0.34502928373681   -3.65302113962294
H          21.41747307016604   -0.83930923406328   -4.94881854077393
