94
 SCF done       -187.667590988304          0.000933783357
C          -3.21702354241510    3.31455290353000    0.53579819385673
C          -2.15260978718297    4.10889725154790    0.21500006447858
F          -2.21060636308489    5.43086662379698    0.42591392428494
C          -0.98264631764621    3.55184317989526   -0.33986316718644
F           0.04570235772114    4.35595275415438   -0.64377755645683
C          -0.89325175746920    2.20707293194327   -0.56543874198650
C          -1.97284929049626    1.36109719379116   -0.24410059976595
C          -3.15769759226819    1.92339859783656    0.31455122729975
C          -4.25636832134048    1.09570345564480    0.63780736859104
C          -4.17363534689317   -0.25308917723498    0.40716361462364
C          -2.98302065774916   -0.80661554583447   -0.14025807090765
C          -1.90492452997819   -0.03261959942268   -0.46085077042039
C          -3.12954433369522   -2.26739863460181   -0.27996609116883
O          -2.27697297983553   -3.04425410472473   -0.64413696649224
C          -4.49291282708274   -2.57874723806014    0.23888821088338
C          -5.13541011580690   -1.32926206226465    0.61325913016102
C          -6.44103408286762   -1.17844618436927    0.99186782655337
C          -7.38476410861290   -2.22689923957655    1.06435336329871
N          -8.21353384126267   -3.01890379391903    1.11448392621359
C          -7.02796565380168    0.06191700607327    1.32135278273511
N          -7.55379266035366    1.04130510885536    1.60646011461655
C          -4.94461570428185   -3.82839829851574    0.50944384065567
C          -4.36589215408474   -5.04405092969519    0.01159627580299
C          -3.88870255218113   -5.23400038341824   -1.27780208087861
C          -3.95422048784765   -4.31161037645499   -2.32192670992596
N          -4.04624014580938   -3.56208166511552   -3.18741239596907
S          -3.29416682221159   -6.83834857586775   -1.53807681050491
C          -3.70740094594941   -7.29775850910795    0.08541562410570
C          -4.26945110284455   -6.23669451193292    0.78455820703990
C          -4.53418729912533   -6.19752206746183    2.16422474831184
N          -4.67608228584143   -6.00507293789053    3.28869334759898
C          -3.43076869759439   -8.61923056768549    0.53631624177275
C          -4.08064342589807   -9.20669238841819    1.63614418511826
C          -3.67299716622980  -10.48684453087553    2.17154800534751
N          -4.25534165871653  -10.94527847930316    3.26698169247677
C          -5.24327965505625  -10.26573322148684    3.83481665229088
C          -5.73317903856501   -9.07978484183522    3.21888525877811
N          -5.14742531468584   -8.57962647856734    2.15880849567736
C          -6.88778314706465   -8.45703753396582    3.75752771593263
N          -7.83097380343818   -8.02533909155324    4.24342434997879
C          -5.83412014030050  -10.73442360086480    5.02092268495453
N          -6.36273487120255  -11.06154366730818    5.98651525867594
C          -2.64924609030713  -11.27624262312604    1.55773997759063
C          -2.10299507355082  -10.72147346311911    0.35766152203904
C          -2.48564512563671   -9.42768494167615   -0.13483218575743
N          -1.84629322651993   -9.10549523594012   -1.25372932737712
S          -0.85204683458375  -10.31805155038633   -1.65560367961362
N          -1.19436430150770  -11.29642336137436   -0.41819226405985
C          -2.14122017976711  -12.48457615153928    2.01768358032278
C          -2.42448316359806  -13.26094254754222    3.13859224874728
C          -1.72768418472203  -14.45405192742286    3.41688847252246
C          -2.11617171698560  -15.08883076429369    4.56905141336008
C          -3.14345038857194  -14.41301114729808    5.23476144166411
S          -3.60878709278881  -12.95839536316420    4.37605407865903
C          -3.78895752596523  -14.75161498967229    6.42656481305678
C          -3.57182447934796  -15.85305646089271    7.27238727198574
C          -4.39570527899328  -15.87156837304595    8.36538813809145
C          -5.29942880958529  -14.78921346865252    8.43022673386044
S          -5.05642658448188  -13.74160419918610    7.04443528266258
C          -6.23617162134787  -14.58260692401875    9.42447507583293
C          -7.16286194351083  -13.53925824268464    9.54225477757873
C          -7.36439793971277  -12.42392308084860    8.66515439643890
C          -8.39220141886769  -11.64589484653553    9.16951542021875
C          -8.96018474981557  -10.45885184805279    8.67749484171279
C          -9.98830250397889   -9.90495780188222    9.40443915186350
C         -10.76815865199788   -8.74020625778716    9.19848396349390
C         -11.69448929791177   -8.62266591242556   10.23863321008207
C         -11.50924677724560   -9.71591305000720   11.11712201203075
C         -10.46898026196684  -10.52132557899113   10.63264587066881
C          -9.90819610444807  -11.69554243063020   11.12293578516130
C          -8.86765926259118  -12.26504911566228   10.39609192280305
C          -8.09778959416112  -13.41860980770531   10.59924907937545
C         -12.65727590052629   -7.55354807069811   10.35792960791825
C         -13.55015105178531   -7.42415123186484   11.33593493133878
H          -4.10581407802923    3.75744073371784    0.95745767176162
H           0.00859479575720    1.79556285036237   -0.99091975279457
H          -5.13662238424074    1.54936560560683    1.06394698674874
H          -1.01617634288519   -0.47952104459378   -0.87933405614068
H          -5.78803396293196   -3.96129166407420    1.17729542210024
H          -1.36043799908923  -12.88966200604489    1.38291616062192
H          -0.95253602563715  -14.81433089696951    2.76331575855354
H          -1.68373694487145  -16.00612726652534    4.92788807006977
H          -2.82500098333509  -16.59769661400179    7.06384375448562
H          -4.37552675132265  -16.63529261023307    9.12316886814108
H          -6.25511710309382  -15.32883021942953   10.21074632745587
H          -6.82574684449094  -12.20347229783549    7.76443168752825
H          -8.59177629352394  -10.01541712951234    7.76407376366276
H         -10.65908465606258   -8.06109583339190    8.37275197344463
H         -12.07239093506989   -9.90339384603851   12.01272581291596
H         -10.26941688079190  -12.14848457802131   12.03563691670032
H          -8.19624260599766  -14.10549392368058   11.42040048861497
H         -12.61804618673678   -6.81601585954438    9.56652450801828
H         -13.62715415880739   -8.13254155021337   12.14320355770976
H         -14.24013835171866   -6.59898985067163   11.36053614584978
