107
 SCF done       -205.702554382404          0.000558698750
C         -14.03171327454653   -2.87511890111975    5.03279190292870
C         -14.98986725308334   -1.91696259030064    4.84987788294999
F         -15.90572208571281   -1.69122156343110    5.79913354339399
C         -15.02655289082954   -1.15701978100824    3.66367545059433
F         -15.97554185352501   -0.22483482021720    3.51000586618408
C         -14.10437905208949   -1.36582829747383    2.67624789441930
C         -13.10634359107802   -2.34638661324395    2.83495583745189
C         -13.06777322725300   -3.11520123426162    4.03395584614441
C         -12.07627326102598   -4.10813616662910    4.21423013689506
C         -11.15570792821919   -4.32803007946707    3.22546278675373
C         -11.20365806408164   -3.55628402283344    2.02800090509824
C         -12.14548734565433   -2.58802834278824    1.82801832557936
C         -10.12794774434654   -4.00242682866483    1.13483968371247
O          -9.84834638600381   -3.56076661130792    0.02314796751987
C          -9.43692057473049   -5.08684443480665    1.83412760080848
C         -10.04513398147697   -5.27536666238941    3.13064679486400
C          -9.66329281037485   -6.16057812712296    4.10470324069094
C         -10.30460318875051   -6.28827304569914    5.35383785144635
N         -10.78814268096445   -6.43459632807800    6.38452987844879
C          -8.57286475808058   -7.04604551876605    3.98360579030638
N          -7.68883176016954   -7.77600347387373    3.92485318414922
C          -8.39765588784297   -5.77522084804855    1.25329274645206
N          -7.97968476794376   -5.46607956381194    0.02140005712992
C          -7.01692023844253   -6.10773382478107   -0.69136303212721
S          -6.27502009938555   -7.55951749696780   -0.08464647748612
C          -5.39371727232591   -7.70530235546969   -1.56902979837092
N          -4.51595987435069   -8.79332709787282   -1.70775607723940
O          -3.90729059949447   -8.89396701126006   -2.75450907747662
O          -4.43537106697459   -9.55372400870402   -0.76145970072819
C          -5.65942260516870   -6.70841799322328   -2.46527161046146
C          -6.57956252627055   -5.75693433082051   -1.97512384360410
C          -6.96508937541028   -4.61388934670908   -2.75417345795708
C          -7.43919756997863   -3.43253251610961   -2.29931661241373
C          -7.80117236256896   -2.34681261015867   -3.13681233959678
S          -7.71373144140364   -2.45009927823105   -4.87175110648619
C          -8.28955655393796   -0.81218562412311   -5.04438372266342
C          -8.54866006823230   -0.24315981019925   -3.79646086454633
C          -8.26717242292771   -1.10054837110393   -2.72992930382524
C          -8.48103153763762   -0.71465413036456   -1.29969891566605
C          -8.71306757653055    0.78824691784906   -1.15951524418745
C          -9.71474970397756    1.28496458851244   -2.21333936458779
N         -10.14375753862818    2.66029939479104   -2.04448312912994
C          -9.08802331946138    1.13562029890075   -3.60252246463775
C          -8.41489532843245   -0.19466367220138   -6.30043759438126
C          -8.28219364631362   -0.83972949116231   -7.50080702602320
C          -8.33572539946045   -0.25307051349121   -8.77244633291184
C          -8.26409426252935    1.08058279698530   -9.11514609697109
C          -8.32737272342617    1.58199230126503  -10.43719003460671
C          -8.13897508225776    2.92855755912208  -10.54408685426363
C          -7.90476094665831    3.56760491780040   -9.30902809787692
S          -7.97236296937742    2.40995494608583   -8.00645917509384
C          -7.61980103354016    4.90505449418993   -9.07949712219729
C          -7.54447314875697    5.94845610404877  -10.02370553528549
C          -7.18427019627313    7.15315197171733   -9.49095190169117
C          -6.95408409898682    7.11890607807776   -8.09701688799098
S          -7.23841954136836    5.50844346453402   -7.48327056380577
C          -6.53313152028543    8.12726016160593   -7.24582720564127
C          -6.24717139824127    9.41794678981967   -7.67541577281100
C          -5.76813648871687   10.43306708657259   -6.86817613845230
C          -5.44861080474933   11.77300307391623   -7.28613537921069
C          -5.60086536499774   12.31390229239569   -8.54384674273048
C          -5.27774193532625   13.64339064662092   -8.87764557458313
N          -5.03566781375129   14.71430171236319   -9.21614546071479
C          -6.09790138871127   11.63624970437980   -9.67335054150619
N          -6.49187069408931   11.15590633533061  -10.64118159799816
C          -4.92318022736513   12.48861434657125   -6.12444051070200
C          -4.93461554465552   11.61381940466484   -5.01129154161332
C          -5.47130677547400   10.30058034656945   -5.42966933268016
O          -5.62161136532074    9.32817665377089   -4.71487922692997
C          -4.49045746158412   11.98964892012423   -3.76824933276042
C          -4.00750001773841   13.29422582595191   -3.61428795583849
C          -3.99984513465591   14.16091135561901   -4.73111929765780
C          -4.45205925240192   13.78015157653720   -5.98956915835024
S          -3.35965580136427   15.72451372391329   -4.32255675311747
C          -3.11157159471387   15.19680721877763   -2.67939289984919
C          -3.49033978298775   13.91825544759893   -2.44572741287707
Br         -2.37862833199397   16.38510201985639   -1.42588018704676
H         -14.01815185164980   -3.44814265593531    5.94671819781532
H         -14.14796234453635   -0.77642820526799    1.77373174206722
H         -12.07532984654533   -4.67336533812418    5.13195136379736
H         -12.16358811901728   -2.01775812439122    0.91155421444809
H          -7.88636609152758   -6.58240465736201    1.76146704491668
H          -8.51244174741950   -4.70578537045292   -0.43320010104285
H          -5.19131646608643   -6.65618275475386   -3.43171736671851
H          -6.80291647008011   -4.72039931305134   -3.81918867097550
H          -7.53151595444518   -3.23534605953982   -1.24186938771887
H          -7.61737657623220   -1.00958935216271   -0.69848162060823
H          -9.34528551301880   -1.26698420538907   -0.91773723518212
H          -7.76793039456727    1.32253650857984   -1.28980976513870
H          -9.08683019898769    1.00657845147583   -0.15596377164977
H         -10.61627781332984    0.66129496695612   -2.16272665850097
H          -9.34632296759049    3.28764609192014   -2.06952769717083
H         -10.61030442201480    2.78650090001087   -1.15339409969941
H          -8.27707037505287    1.86455455538526   -3.70756943125451
H          -9.83572358601742    1.37168781656594   -4.36031299617044
H          -8.65892878068760    0.85709797404801   -6.28151341842185
H          -8.14886416524939   -1.91452016237841   -7.47704277033618
H          -8.40228831331682   -0.93444436092778   -9.61177565395011
H          -8.50406264227087    0.92858758337983  -11.27343224551560
H          -8.14307429255902    3.46771739799464  -11.47379438896826
H          -7.75275404518495    5.79112568355824  -11.06664588289697
H          -7.07739235421560    8.05266867507372  -10.07001017946693
H          -6.40203356264154    7.89020378849571   -6.20028833644537
H          -6.39616660324101    9.64075714148081   -8.72137599118053
H          -4.51082486003897   11.29871078633308   -2.94002699236894
H          -4.42326135480323   14.47904240321628   -6.80850138500944
H          -3.40862308976842   13.43301269968173   -1.49023030245461
