105
 SCF done       -210.152987171362          0.000877677493
C          -8.57012940875893  -11.00842454877440   -1.89346962478411
C          -9.46042026141586  -11.07445593866893   -2.92899932708217
F          -9.90033185461129  -12.26161705164352   -3.36387900186010
C          -9.92582758522592   -9.89836954421371   -3.55017959652147
F         -10.79737911950147   -9.99157016977386   -4.56310604575292
C          -9.49562246693561   -8.67190648057729   -3.12635011769840
C          -8.58076153032184   -8.57125675512252   -2.06063753474976
C          -8.10784479797445   -9.75980988863147   -1.43309891334416
C          -7.19012762297778   -9.68322069490514   -0.35924704010497
C          -6.76441920082783   -8.45751574497711    0.07629946574698
C          -7.24744529936979   -7.27307304428578   -0.55330025636861
C          -8.12790257128415   -7.31616322998919   -1.59599669361589
C          -6.66395841365128   -6.10708812857306    0.12180658732021
O          -6.84218758286976   -4.92059467361607   -0.13964384759836
C          -5.82394476731350   -6.63661925159151    1.19870862317114
C          -5.85053364550122   -8.07949253669140    1.15403428214031
C          -5.14696497745807   -8.94583089197838    1.94939604488899
C          -4.25681478215491   -8.53716115422711    2.96352665825502
N          -3.51809750980066   -8.24261637485970    3.79144392429568
C          -5.21278533072519  -10.35010465045196    1.84291734170425
N          -5.22793187205787  -11.49707153081314    1.80056853670476
C          -5.19471541606276   -5.80237515200343    2.09209261025130
N          -5.31486146135347   -4.47586830726564    1.97493475486682
C          -4.83276588416115   -3.53693379123796    2.82752325993867
S          -3.94039712551609   -3.97461988827800    4.25210039567909
C          -3.84774573427000   -2.29695463392965    4.67699401100918
N          -3.16064813661884   -1.95376175197231    5.85202467783033
O          -3.10593985260562   -0.77567038530582    6.14703404041589
O          -2.67516712717010   -2.86966747879607    6.48960851478479
C          -4.46459237931961   -1.46497603822877    3.78400336100777
C          -5.03855507331571   -2.15690078993759    2.69712736157046
C          -5.71266445338695   -1.53652130151494    1.58930601529302
C          -6.23841818565017   -0.29151965118575    1.63927971063111
C          -6.84609742003403    0.40989304887111    0.55721340016324
C          -6.64177833154923    0.15470099554166   -0.75938795467150
C          -7.21950083810281    0.92156481168669   -1.79968579947332
O          -6.80467121954860    0.72895742962088   -3.07896707796915
C          -7.46625134217818    1.59872546579385   -3.88744210199288
C          -8.34520902617143    2.35535629254443   -3.10724176653943
C          -8.18239462195183    1.93265079528523   -1.77812131675992
O          -8.83115188416458    2.41035050814384   -0.69652126972589
O          -9.20929992663503    3.33358653903255   -3.47791970485557
C          -7.18503898293574    1.68818014611460   -5.26476604266015
C          -6.21433448108951    0.95327454161376   -5.88973416696989
C          -5.83366902348080    1.05675341344994   -7.23914366488404
C          -6.39655990801214    1.87375486887842   -8.19072569023322
C          -5.91627631558434    1.97032961532225   -9.49549916869822
C          -6.45999176970699    2.77684093444682  -10.47432012064560
C          -5.98747658293669    2.94861052251440  -11.79210964893366
C          -6.72896450594680    3.81306496395400  -12.54573796728657
C          -7.83391146535302    4.35981217574799  -11.86266222065388
S          -7.89390737903854    3.76042847899828  -10.22617742027605
C          -8.78960406494984    5.23258749960581  -12.36482361522802
C          -8.84327757036227    5.79464716732123  -13.65522604249247
C          -9.93048372232561    6.59394551652667  -13.86788584839134
C         -10.79276575239642    6.69844131683498  -12.75426435301854
S         -10.16097070520613    5.76403586324501  -11.41976438906813
C         -11.99335478425624    7.37988648019346  -12.63069536670584
C         -12.55937015922732    8.11124209533587  -13.66783374630740
C         -13.78056727534803    8.75813420695954  -13.61192073673849
C         -14.39454219683304    9.50540649038864  -14.67747415895906
C         -13.87815760635741    9.75162534152359  -15.93094627703927
C         -14.54105771238559   10.49204483072229  -16.92861274799324
N         -15.02403630312109   11.08651014285656  -17.78512252136703
C         -12.62843195938216    9.31007950802596  -16.40492252860385
N         -11.62770739868734    8.98553395672955  -16.86987922902917
C         -15.69610553669628    9.97191484986282  -14.20184798071718
C         -15.87616668055002    9.52849436461118  -12.86937739594737
C         -14.68339211208430    8.76214099430374  -12.44633920655363
O         -14.51106083611030    8.24872105500253  -11.35746759256544
C         -17.01098944774693    9.79698670432612  -12.14578102787426
C         -18.02109030347278   10.54041692816352  -12.76723564481304
C         -17.83097085143537   10.98239604566153  -14.09640931527302
C         -16.68059176688497   10.71089920891594  -14.82853045611964
S         -19.20170974154568   11.88247154798780  -14.67339747521737
C         -20.00112040723578   11.65226163335411  -13.14104593238255
C         -19.28060911105372   10.94111160910286  -12.24230541898175
Br        -21.71314567079104   12.37178103382528  -12.87281022132184
H          -8.22367724291290  -11.91845915462479   -1.42907012156575
H          -9.86275284955548   -7.78129076022613   -3.61187353689162
H          -6.85233126144248  -10.60021688360453    0.09559593019463
H          -8.47932872168537   -6.40549520750581   -2.05675972633875
H          -4.60517745250396   -6.17700790113250    2.91890024497111
H          -5.89810911748384   -4.17661229967085    1.17225206879921
H          -4.47088083546224   -0.39767623302623    3.90673390937900
H          -5.80743171881334   -2.11693335771009    0.68256909637510
H          -6.23532217309045    0.23236565131486    2.58556859135572
H          -7.47315518622212    1.24916605411994    0.81967733374170
H          -5.96841194755670   -0.62633892850986   -1.08154927571792
H          -9.44926705780133    3.09231597307574   -0.99309239080049
H          -9.17157674992173    3.46917605599779   -4.43081397248238
H          -7.76276032063708    2.41263820364254   -5.82158620676017
H          -5.66843106128626    0.24847355320694   -5.27804535549797
H          -5.00129106297791    0.43827361573380   -7.55025663798564
H          -7.24998786497016    2.48891874079220   -7.93944807382041
H          -5.04745201142423    1.38597450283606   -9.77044023914989
H          -5.11307493913760    2.43195385451160  -12.14655124417436
H          -6.51248387509510    4.06014505064083  -13.56902919672344
H          -8.08781265538071    5.60171379976272  -14.39528799736389
H         -10.12416139665174    7.09974812086171  -14.79655867519711
H         -12.52028634371407    7.32227729026410  -11.68967696032133
H         -12.00986902198773    8.16797485119243  -14.59549027681119
H         -17.11889504114872    9.44341732010201  -11.13232697284466
H         -16.58599500335880   11.06997309604121  -15.83954878628713
H         -19.62159095687542   10.70609450659446  -11.25055477520749
