102
 SCF done       -216.356299611856          0.000467550602
C         -13.25809489937279   -2.09849967746675   -3.60603734203828
C         -14.46671368110477   -2.71597463306485   -3.76595036042154
F         -15.49157943373210   -2.05639939365739   -4.32055822679128
C         -14.65171538215701   -4.05033340084881   -3.35000835973605
F         -15.84814634521097   -4.62850181781298   -3.51770632752665
C         -13.62483234923355   -4.74863752962485   -2.77922999030690
C         -12.36782618927424   -4.13926715148730   -2.59822521192574
C         -12.17873909186392   -2.79074858316723   -3.02041248241767
C         -10.92520120463420   -2.15975873560780   -2.85289292636789
C          -9.89256440642307   -2.85649103849325   -2.28130342185182
C         -10.09327608206424   -4.19909838794120   -1.85497168199081
C         -11.29266533631672   -4.83471940303557   -2.00264913584352
C          -8.85048915247581   -4.72543689906264   -1.26542708554000
O          -8.70389695548964   -5.79534822032703   -0.71955306779970
C          -7.86702874904680   -3.60744599757524   -1.35368553757286
C          -8.51291584457692   -2.47871823322460   -1.99732707648908
C          -7.91027979837172   -1.30357124705549   -2.35903145332786
C          -6.54919098666812   -0.99944562071692   -2.14216349942624
N          -5.45108571679314   -0.69396281775729   -2.00579944114743
C          -8.57331093638676   -0.24542869376220   -3.01650263116245
N          -9.06217233530050    0.65147776521027   -3.53945644767786
C          -6.65601977837485   -3.60274194802723   -0.73109789901996
C          -5.96741764248133   -4.76097983243488   -0.28211789290588
C          -5.91664663957696   -6.01707783963624   -0.87701780747831
C          -6.50961123260687   -6.26712449342910   -2.12848414712133
N          -6.95161135343550   -6.41220252306036   -3.17554183048240
C          -5.10003306558171   -6.92164942520276   -0.16047538272526
C          -4.53751187678463   -6.31979764201416    0.96805141444443
S          -4.95682389442304   -4.66517006895111    1.14544070097328
S          -3.54452648002492   -7.35431335899412    1.93951232176394
C          -3.88263508214753   -8.63224402675016    0.82017657574963
C          -4.70473651477646   -8.28865041778975   -0.25088253797772
C          -4.91567801086946   -9.39038211257880   -1.11372434181944
C          -5.69633796902973   -9.40524084435126   -2.27840059110817
N          -6.32837643754785   -9.49279357702731   -3.23172668193008
C          -4.24759958477164  -10.54213352124473   -0.68280736235395
S          -3.37777024061361  -10.27723685578349    0.81689495422525
C          -4.24116249901872  -11.77437219573163   -1.35657364522343
C          -3.57616760145424  -12.91340960748275   -0.99168377213473
C          -3.60248105214535  -14.14677263777437   -1.69456601245842
C          -2.87648648743174  -15.13906258176867   -1.11688501325555
C          -2.21555293009440  -14.74943618450100    0.07205585016412
S          -2.56532209836687  -13.06721551532386    0.43480398316320
C          -1.39926703057082  -15.51472217204261    0.87348175869019
C          -1.09214368165689  -16.89068565653771    0.73740428977550
C          -0.21648383341258  -17.35994190933204    1.66142459902413
C           0.26061355991540  -16.37133942213380    2.56432694973860
S          -0.55301446842284  -14.83815238248356    2.25141994575521
C           1.27026411436673  -16.53655631298650    3.46287549671037
N           1.84024121011175  -15.53035141845229    4.17020379456342
C           2.99001698046016  -15.61633828394411    4.87519577386548
S           3.56241335002898  -17.15429845474865    5.44728086907148
C           4.84865431579112  -16.34656220106908    6.29339407444199
N           5.75056065986339  -17.14783734406871    7.00133119570723
O           6.65813190746062  -16.59578983285051    7.59407714889120
O           5.55087359880733  -18.35091897085084    6.96490913729398
C           4.82854844071095  -14.98862634936399    6.14416567838600
C           3.79229129004596  -14.54032729876545    5.29825818381747
C           3.65896451508630  -13.15275450070257    4.95430089203091
C           3.10420700839061  -12.60509037449277    3.84496566723400
C           2.71229275217588  -13.29307318936828    2.66330241376558
C           1.80811701561430  -12.86599444891288    1.73950395610383
C           1.64293168614259  -13.53529641414505    0.42213896325336
O           2.11717551545332  -14.59736207755912    0.08730576913359
C           0.78850356674923  -12.62513633036584   -0.37165441783926
C           0.31785056269786  -12.76608162889974   -1.64499428308055
C          -0.49135816879033  -11.74581188112746   -2.19615763441731
C          -0.73771890719397  -10.56193612016277   -1.44222403031630
C          -1.51155598054366   -9.53331051076258   -2.01365920348249
C          -2.05537099852606   -9.68623273691000   -3.25837981070572
C          -1.83768372557474  -10.87068456727444   -3.99094018810194
C          -1.06315176927287  -11.87352718834837   -3.47623034005778
F          -2.38969622825313  -11.00635179682866   -5.20093144555008
F          -2.80144340084340   -8.70999436500196   -3.78444822836074
C          -0.25407987203112  -10.44969081378595   -0.11980828094477
C           0.45188463099670  -11.48832995277420    0.42041875546573
C           0.89418521076735  -11.74612111559335    1.78338717096059
C           0.29838053767995  -11.24518109228523    2.91437471715638
C           0.43004927884469  -11.91613179294187    4.14448276261170
N           0.48770463607799  -12.54875855304186    5.10154007378284
C          -0.61707588644735  -10.17676493775910    2.90680765490561
N          -1.34769104452930   -9.29160953151686    2.93338900093423
H         -13.13316345443932   -1.07774419312931   -3.93222146126496
H         -13.78149033266610   -5.76923349809763   -2.46699797300760
H         -10.81474367385756   -1.13778272400058   -3.17795267735843
H         -11.41437912718325   -5.85563450481708   -1.67458871173377
H          -6.16778711949303   -2.65853569269103   -0.52241625774814
H          -4.83254002605307  -11.81615110149091   -2.26278173415984
H          -4.16878319089001  -14.25147928576957   -2.60273932089217
H          -2.78842691969823  -16.13411762688025   -1.51350596468130
H          -1.52842659328865  -17.48862298189878   -0.04148124265299
H           0.13974662392058  -18.37296370315661    1.70795620054796
H           1.71524317496906  -17.51430114899240    3.58389297655975
H           1.43276121559127  -14.60211106811229    4.08010350705260
H           5.56168041375632  -14.34628759390032    6.59807750980160
H           4.06045461987133  -12.47674613945476    5.69740990260856
H           2.98299251616265  -11.52859671780499    3.83423512897305
H           3.22906378642295  -14.21651860575981    2.42458159454538
H           0.54556558770435  -13.64996014452581   -2.22134920635762
H          -1.68755405222510   -8.62082139237245   -1.46506187754403
H          -0.89652781118845  -12.76754082651185   -4.05658923160839
H          -0.46535363739612   -9.55413019375057    0.44267083342302
