85
 SCF done       -162.125014414983          0.000794858749
C          -3.61425287027887  -14.93857544838715   -5.39820847883630
C          -4.33743062471059  -15.69535248193462   -4.51913097742158
F          -4.51632275483327  -17.00332551431931   -4.74573419668054
C          -4.90341547659597  -15.11258347779288   -3.36788188020344
F          -5.60897313123119  -15.87784021446465   -2.52423158869159
C          -4.73869237646900  -13.77979905254800   -3.11161445238772
C          -4.00091377643490  -12.97349194393840   -3.99920657035230
C          -3.42649099250737  -13.56183342601317   -5.16309534503538
C          -2.67963916319083  -12.77240851056042   -6.06751943428984
C          -2.51345914055873  -11.43601362577068   -5.81537293146528
C          -3.09507145666259  -10.85637755376964   -4.65288090270319
C          -3.82109231154247  -11.59204474494135   -3.76201267635824
C          -2.78358105879223   -9.41730764617019   -4.61663546679375
O          -3.19071498226789   -8.59953719302753   -3.81312860803240
C          -1.97180534090622   -9.15423233338631   -5.82033946507128
C          -1.80050048865501  -10.39511730612867   -6.54731215479079
C          -1.04084080449791  -10.58498430208265   -7.67412057214136
C          -0.89698055056668  -11.82448416223185   -8.33045627630646
N          -0.74867470135217  -12.80218948549430   -8.91348638792067
C          -0.29083301947170   -9.57624232725584   -8.31103736851109
N           0.34623937678621   -8.79376361451545   -8.86036288899779
C          -1.62555943683743   -7.90885635439512   -6.27222176597505
N          -1.60418111001213   -6.76469527282658   -5.55632888415759
C          -1.39209736716355   -6.58414058786272   -4.21665965942439
S          -0.58633391165571   -7.76064329213213   -3.23845598996247
C          -0.52897275852014   -6.62053815626752   -1.93865426417139
N           0.04352081782126   -7.04091332011229   -0.73259950163499
O           0.08492203563431   -6.24311513006084    0.18534814654866
O           0.46585745523034   -8.18430936241856   -0.69794017245872
C          -1.08420710197514   -5.40668777388168   -2.24864669160325
C          -1.59638478674742   -5.36908616028666   -3.55704421510422
C          -2.24396487685044   -4.20516204623775   -4.11786028956191
C          -3.20954541001517   -4.22218635136199   -5.05172081027510
C          -3.86811201257785   -3.05419633399431   -5.59056380726189
C          -3.32126274439759   -1.86578224405769   -5.87368897113207
C          -1.86484879766808   -1.54125132737641   -5.77864751123810
C          -4.17662167940256   -0.72901521950993   -6.38899519757587
N          -5.53264812738372   -0.78589783663366   -5.91152945879562
C          -6.65803761202718   -0.85643150858059   -6.65475245649194
C          -6.76257763201623   -0.83318131336796   -8.01003186910165
C          -8.00772951117903   -0.87819560856638   -8.66544379168820
C          -8.17718409440524   -0.84160964853128  -10.02263662841446
C          -9.40214692699342   -0.86517077679879  -10.73398202468851
C          -9.26947524389383   -0.80554201865161  -12.08580771554120
C          -7.92702336570661   -0.73354573654539  -12.53149542727180
S          -6.83604317714297   -0.74396264121451  -11.16626700989845
C          -7.47680660778473   -0.66365722604820  -13.83262196929206
C          -8.25126128396539   -0.64153100745888  -15.01712825771427
C          -7.52267890384329   -0.56937094456324  -16.16192681966572
C          -6.11864940944225   -0.53101397701596  -15.95076933713757
S          -5.76839332786399   -0.58770522541967  -14.23388753054260
C          -5.12032599190812   -0.46203709742792  -16.88154485614586
C          -5.33706707220738   -0.41462094391879  -18.27936138516380
N          -6.46507776699373   -0.42279688743607  -18.94234426254090
C          -6.11620698536908   -0.36126239381236  -20.26401656064906
C          -4.74374774581726   -0.31747679230349  -20.34479131929566
O          -4.24691622847469   -0.35008334897984  -19.10507618419527
C          -7.10173577609464   -0.34797651625311  -21.33172326244451
O          -6.84679493353258   -0.29452754199512  -22.50887273622844
H          -3.18632649113831  -15.40116506332614   -6.27382602495666
H          -5.17750018695212  -13.34881243630127   -2.22539988423433
H          -2.25978080758911  -13.24601573051139   -6.94014200571906
H          -4.24849071547788  -11.12823797964293   -2.88614385602431
H          -1.37036473868329   -7.77528194727664   -7.31587684511167
H          -1.64789776817628   -5.89604236951472   -6.08154965372365
H          -1.13555185904102   -4.59363884430797   -1.54743262290766
H          -1.95245050538053   -3.26625775512959   -3.66969592851592
H          -3.62162924571482   -5.17008196348229   -5.37592006482140
H          -4.92041103495685   -3.19450715203254   -5.80901080843334
H          -1.25801467692273   -2.44239432188141   -5.76685853316781
H          -1.65410576100904   -0.97271392932014   -4.87277095630571
H          -1.56958616363851   -0.92605587963467   -6.62756240149360
H          -4.18274643522713   -0.74042319403927   -7.48106122186100
H          -3.72268253372042    0.21953353710470   -6.07254995210702
H          -5.63053470939760   -0.84506510228945   -4.91060560942287
H          -7.56567134227333   -0.92080003372125   -6.06809517653165
H          -5.88767044554915   -0.77106879531566   -8.64007846206163
H          -8.90133366183669   -0.93709414382235   -8.05719061614072
H         -10.34447967330224   -0.92336179468070  -10.21757238018863
H         -10.09368653815547   -0.81126335589198  -12.77583180596387
H          -9.32568672457679   -0.67878224445777  -14.98784701265040
H          -7.91502285151852   -0.54140850118400  -17.16139472704874
H          -4.08857883733346   -0.44162988577558  -16.56649487119817
H          -4.07070554058053   -0.26567190042525  -21.17551615645169
H          -8.14028570162121   -0.39736892748032  -20.95745335271928
