102
 SCF done       -216.347719214185          0.000703658739
C         -12.45470491912150  -11.20283824930693   -8.25010254825026
C         -13.17604929564358  -12.36314674492984   -8.30476042291098
F         -13.92021596681070  -12.64220111126931   -9.38211958890086
C         -13.14630709677135  -13.27711121270664   -7.23282577208602
F         -13.86211914472830  -14.40602290818534   -7.31305514276746
C         -12.39525091155506  -13.01803696672333   -6.11996605489163
C         -11.64187779607052  -11.83182523406643   -6.03428917600264
C         -11.67138570131851  -10.90652781133154   -7.11746053692180
C         -10.92367541530859   -9.70705011200369   -7.05233308533911
C         -10.16990282356504   -9.44444096769301   -5.94066858856243
C         -10.14233132346338  -10.37825812481319   -4.86316618551901
C         -10.85546747682188  -11.54134336420406   -4.89634621995004
C          -9.25064893321325   -9.86491358210152   -3.81351797218999
O          -8.97125590699235  -10.38739843967105   -2.74096514838452
C          -8.71837156374389   -8.59723592231910   -4.32007021062992
C          -9.32286635064498   -8.30423979006093   -5.59442217011270
C          -9.20064801470068   -7.14165797291351   -6.31479696810464
C          -9.82021631120268   -6.91186032769167   -7.55929489615398
N         -10.29605051176856   -6.67068046203916   -8.57587063743313
C          -8.48747588162550   -6.01591776330115   -5.86292921238525
N          -7.94522850390409   -5.06408552751650   -5.51492095708050
C          -7.73452134065952   -7.90498131379882   -3.65296037052996
N          -7.31872515086022   -8.31212014721197   -2.44808447519784
C          -6.34994133425638   -7.78009615880121   -1.65172855571269
S          -5.68316622637919   -8.81837601725174   -0.42664197371444
C          -4.58703402401375   -7.55571339210600    0.02406839810171
N          -3.70434443942633   -7.80340141575900    1.09026942448200
O          -2.93729019643723   -6.91642562018105    1.40411736269742
O          -3.78441963500932   -8.89690544218725    1.61841223779252
C          -4.72839124992688   -6.41718681867044   -0.71677264510199
C          -5.75638809260643   -6.50840713239397   -1.68416214342749
C          -6.17297560452837   -5.41190097781277   -2.50641213539426
C          -5.40181592868282   -4.33387396083305   -2.80706811560737
C          -5.86437544801139   -3.27344412282961   -3.60768981330070
C          -5.11182338953199   -2.18143453268738   -3.95228957205620
C          -5.52982351518574   -1.07904200830028   -4.74074924754015
C          -4.57875594213691   -0.12180043427512   -4.91158580768951
C          -3.34905354846842   -0.41645446903153   -4.27627146139391
S          -3.44408048864541   -1.94972701444333   -3.44660824781874
C          -2.19685959426014    0.34692270172662   -4.26955223405124
C          -1.99973651204407    1.61813063727049   -4.85550062002713
C          -0.75203658188147    2.12993962901432   -4.66946642486446
C           0.11665755688494    1.28564752504219   -3.93305622296598
S          -0.73001017301938   -0.18509823454899   -3.48142981724753
C           1.42969415305108    1.44004377266941   -3.56286177338383
C           2.28023777118619    2.53826636939068   -3.76897803991352
C           3.62753587594515    2.56852403524345   -3.38534749471426
C           4.23730549576903    1.46048637864702   -2.78147347431320
N           4.69471239705951    0.52751606580070   -2.29465045449875
C           4.25558369876594    3.80446038504801   -3.67512127449249
C           3.37044350429530    4.69586636732178   -4.27125845527047
S           1.78912232375893    4.05752712735335   -4.50161013226518
S           4.03120812333659    6.25547285576725   -4.64887693391399
C           5.53622173386552    5.71407338828158   -3.99487480901073
C           5.54139334871312    4.40271761703812   -3.51889645405512
C           6.81981493760850    4.04326708802950   -3.03084427386521
C           7.19157152145969    2.79243846089997   -2.50559643053229
N           7.55170256593216    1.78565251472725   -2.09454048229652
C           7.73440319974254    5.08866863856317   -3.09642201839355
S           7.04044460404198    6.52366494035799   -3.82670361766632
C           9.10134085276967    5.01762441610386   -2.71768896380414
C           9.92840797232910    6.03095547693410   -2.35695216502196
C          11.40837690828067    5.84992075430516   -2.44532756602691
O          12.00165095592027    4.81037528032609   -2.59588625770640
C          11.96373073955569    7.21731239826235   -2.38086328680864
C          13.25778302188971    7.62387716835420   -2.53744318083074
C          13.55992454631375    9.00139985346184   -2.45197195490387
C          12.50970372829354    9.93561328475671   -2.21301269869004
C          12.81810234164513   11.30867568389177   -2.13372270820469
C          14.10839059317326   11.73413440731011   -2.28058013804283
C          15.14658843213051   10.80947083540134   -2.51549296495643
C          14.87952862110695    9.47170752763739   -2.59975583685197
F          16.40100208078157   11.25564131612131   -2.65687296131469
F          14.39988887927003   13.03831829073794   -2.20299447782783
C          11.17985895855909    9.48556255843864   -2.05100257793032
C          10.91269962811367    8.14467640304068   -2.12610935393477
C           9.66929278065400    7.39998861569327   -1.95598190085175
C           8.56603933061193    7.84590054815529   -1.27870552583164
C           7.49685990338722    7.00892199787413   -0.89507621598118
N           6.62625406238893    6.35256933417346   -0.53671267196863
C           8.41313638032008    9.16954689852616   -0.81674529792558
N           8.23552502206765   10.23802767483277   -0.43830749892616
H         -12.48958721846758  -10.51374471892711   -9.07946098117154
H         -12.38286090302408  -13.72814671981387   -5.30797720509912
H         -10.96383957816960   -9.02787017186058   -7.88871794622112
H         -10.82089867004566  -12.23123039267448   -4.06696460254191
H          -7.24317889864563   -7.05361755891943   -4.09893252520255
H          -7.75849580475968   -9.19953432222150   -2.14602629060710
H          -4.13603865274609   -5.53847482670135   -0.53875392070268
H          -7.18134198155884   -5.43199671764564   -2.89411528934540
H          -4.37992411133706   -4.28030393449678   -2.45583385476013
H          -6.87312364595715   -3.32820190830013   -3.99272245667451
H          -6.52223786228847   -1.03602003767404   -5.15264620259457
H          -4.72212868208133    0.78034813301769   -5.47834296065069
H          -2.78124587906817    2.12381416896033   -5.39353657200976
H          -0.43901732349883    3.08366327374327   -5.05263818646689
H           1.88876060036749    0.61433705202025   -3.03264711191175
H           9.55871596286405    4.03421363718367   -2.78885250523502
H          14.04056316049948    6.90393930910840   -2.72166804338319
H          12.03620543576359   12.02899082517785   -1.95021508506388
H          15.68509736016886    8.77713656525851   -2.77961895673131
H          10.40191640497799   10.21269293029881   -1.88002302598557
