110
 SCF done       -204.594140525778          0.000386958919
C         -14.34110643735457   -8.66911335969958   -8.42018453795422
C         -15.57197790036609   -8.14618497468897   -8.13653587463081
F         -16.65249753893582   -8.56194841469617   -8.81504584691178
C         -15.72208129425046   -7.16288545423106   -7.14123040329672
F         -16.94056692034497   -6.65666123698340   -6.89495746046388
C         -14.64018729364193   -6.71827363606001   -6.43386335911419
C         -13.35576006154283   -7.21637654122522   -6.72283194638972
C         -13.20090388172377   -8.20138956589273   -7.73992003914104
C         -11.91206917324267   -8.67507847309526   -8.08543831096037
C         -10.81614270103376   -8.16970905727897   -7.44206737715238
C         -10.98517774284452   -7.20934454033822   -6.40292475149110
C         -12.21379589922427   -6.73624860653535   -6.04331034352182
C          -9.67079213797009   -6.88716111745169   -5.84184381323299
O          -9.42441964349183   -6.09922635651122   -4.93035836159441
C          -8.69658240681814   -7.70481617555058   -6.56901695581937
C          -9.38622327713546   -8.44502830025481   -7.59482218431709
C          -8.82528375100699   -9.21721290768636   -8.58127443193394
C          -9.55945577220700   -9.81753967801073   -9.62114376607364
N         -10.10716236852864  -10.30009684319345  -10.50849455497784
C          -7.44130743927839   -9.45326759217983   -8.70154073857645
N          -6.32183045723051   -9.67150151498392   -8.83288865107403
C          -7.35953853906423   -7.70071884786819   -6.22346798624614
N          -6.95642195548166   -6.89788004984285   -5.23573236187374
C          -5.73840043124311   -6.76066210456367   -4.66566450742171
S          -4.37419787316745   -7.74706654464021   -5.08210684089272
C          -3.44694324605025   -6.92931095301814   -3.86164808738340
N          -2.11210140781107   -7.32633335840566   -3.69648822634050
O          -1.45094511251958   -6.75534507580257   -2.85138648856242
O          -1.71639683870213   -8.22353375683870   -4.42016177886761
C          -4.14122274510338   -5.96433676692041   -3.18370965423150
C          -5.46919228181534   -5.83864182778377   -3.63670821874907
C          -6.45283746972669   -4.90932593617098   -3.17858254700407
C          -6.40147410864071   -4.12154424137861   -2.08002146527070
C          -7.48497870451657   -3.26461024145404   -1.75260963953550
S          -8.82808245531346   -3.10320643248701   -2.85127797904640
C          -7.68607688075286   -2.50673114065354   -0.60302439820159
C          -6.72577147130133   -2.46308897750738    0.51702961192351
O          -5.65396072203023   -3.04809643907093    0.52125003805895
C          -7.20264410870560   -1.65187089613334    1.62336599055454
C          -6.61453247082954   -1.40525360062508    2.84544089174343
N          -7.43593751414703   -0.60802381910221    3.56746161711346
C          -7.14652538347959   -0.08463134999845    4.87837018346670
C          -6.41140013453983    1.25111541420914    4.78799573725777
C          -8.54043678915043   -0.31749832169822    2.83743736185090
C          -8.44275162040117   -0.95124304721287    1.61899257539038
C          -9.38073492809922   -0.96368203704255    0.50565534124725
O         -10.43458867743942   -0.34343289920362    0.51071481715055
C          -8.92143841775776   -1.80750878492332   -0.60526872104564
C          -9.67121883641067   -2.02768839197991   -1.76726340791059
C         -10.94347161687955   -1.54158867408679   -2.10557068152881
C         -11.57787377997186   -1.90277674465181   -3.26736627857920
C         -12.86308917014730   -1.52240633949221   -3.64455742764745
C         -13.47185838879118   -1.97266207137484   -4.80074253087605
C         -14.79182359415294   -1.72723285030191   -5.23165478036459
C         -15.13338501303239   -2.36665800997423   -6.39116400252131
C         -14.09236314933597   -3.13392926659081   -6.94534056131460
S         -12.65774080202049   -3.02138129435607   -5.95013574213559
C         -14.12696296301935   -3.94009142163219   -8.07409750702550
C         -15.25111375605644   -4.29610178595455   -8.84580332052932
C         -14.99611385377054   -5.23887768092440   -9.79896195169074
C         -13.65127635451422   -5.66731767023397   -9.85255607017400
S         -12.70463878800962   -4.75445928428325   -8.67278557749165
C         -13.02570665141531   -6.66230038929563  -10.56368008761576
C         -13.57506371432761   -7.66014273689515  -11.39355068195025
C         -12.75172306115943   -8.72382866563219  -11.91611821469404
C         -13.54786198616791   -9.61669454923031  -12.59887918030387
C         -13.23946911815996  -10.82694793428791  -13.26045126449354
C         -14.27353348010511  -11.51199116115348  -13.83697977946705
C         -14.31577157253352  -12.74395268310390  -14.56085371047685
C         -15.62481593206587  -13.00570506420289  -14.92517215540056
C         -16.44203147687416  -11.93804232407703  -14.43898461529123
C         -15.64045490926000  -11.01924275187516  -13.77530473478177
C         -15.95001218908676   -9.81786063791569  -13.12092844822810
C         -14.91269603134006   -9.12240718949364  -12.53650903705192
C         -14.89085978778686   -7.91851905983359  -11.79285549430984
C         -16.06434145903939  -14.16474358896608  -15.66441029237647
C         -17.32135384883691  -14.43302804903146  -16.00715103874909
H         -14.24597966098881   -9.42293894879286   -9.18562728709355
H         -14.77124495561361   -5.96823214850483   -5.66966094779567
H         -11.83251011301954   -9.41938989767231   -8.86132154895737
H         -12.31112375346328   -5.99713916525855   -5.26320162128506
H          -6.62192699876837   -8.32870568035591   -6.70623680599423
H          -7.74012327384397   -6.34063623903254   -4.83224706339133
H          -3.70062796617325   -5.37028561800112   -2.40404374578626
H          -7.35048555065141   -4.83650482689477   -3.77989189203786
H          -5.57067338355617   -4.13166580711052   -1.39033057910952
H          -5.67881753574186   -1.75861244000235    3.23100340321844
H          -6.53337161175841   -0.81306383784107    5.41529835272940
H          -8.08916262644996    0.04329217894634    5.41707422474118
H          -5.47010374504457    1.12975198360783    4.25750493752680
H          -6.20444103084523    1.62957671567156    5.78495922411473
H          -7.01662603597379    1.98068728694428    4.25540393533230
H          -9.32710534761050    0.30323024699487    3.21793178976938
H         -11.41897739316573   -0.88241376015238   -1.39351029181425
H         -11.05081920491987   -2.56587486709606   -3.94647982960227
H         -13.43245747077152   -0.87024863050409   -2.99649442408747
H         -15.45742437523630   -1.09743473888525   -4.66832886562901
H         -16.10035413993584   -2.29790305361187   -6.85612833816968
H         -16.22475409448977   -3.88093043047065   -8.65680911693750
H         -15.74773641148564   -5.62564254028998  -10.46010835914183
H         -11.95608100798841   -6.74262716694864  -10.40807170867473
H         -11.69078800107911   -8.80802861164378  -11.76258566770452
H         -12.22042127139589  -11.18438375809090  -13.29002928204416
H         -13.46229563884164  -13.35942809247305  -14.77907587442879
H         -17.50608556347842  -11.86174039610793  -14.56708086836342
H         -16.96876077683331   -9.46016065210696  -13.07391460875330
H         -15.76361876614518   -7.33415159867984  -11.57809667425067
H         -15.27531052534611  -14.85183409144532  -15.94434569655398
H         -18.13950831145124  -13.78200724461252  -15.75054843978038
H         -17.57663177278181  -15.32084950196329  -16.55909930792344
