88
 SCF done       -165.599515432096          0.000977199341
C         -13.08589847259059    0.71501663284370    5.16650782055343
C         -13.85766333146183    1.70346037947148    4.62076853446457
F         -14.77668670524318    2.32984832091431    5.36805847404775
C         -13.69785825870073    2.07517323985276    3.27216348506157
F         -14.46732658650101    3.04724492824721    2.76114937064764
C         -12.76719155728304    1.45355462998636    2.48641315908176
C         -11.95765118820839    0.43314514908548    3.01977311713406
C         -12.11843650600692    0.05512226278006    4.38387726272590
C         -11.31544458589662   -0.96811544909868    4.94151331516065
C         -10.38040197379708   -1.59205272235631    4.15996735518401
C         -10.22619782073567   -1.20574431585891    2.79657633306817
C         -10.98685099533746   -0.22393110176477    2.23043830913099
C          -9.16323252207114   -2.01816670229705    2.19418967718858
O          -8.75029981583195   -1.96605414934780    1.03603561307482
C          -8.67975828592614   -2.91026594668548    3.24721923106422
C          -9.42539260795692   -2.65869277905560    4.45635740209798
C          -9.28020379657348   -3.28995918049857    5.66696762547687
C         -10.04484469151952   -2.99077198168579    6.81141900898844
N         -10.63087637563063   -2.78183814878726    7.77674058989407
C          -8.34813334384824   -4.31704855083582    5.91300607383102
N          -7.60758371327661   -5.16156652315589    6.15230648520151
C          -7.65727948531950   -3.80418827649567    3.01568335530700
N          -7.09140950953344   -3.86126462797341    1.80456236624540
C          -6.06853640758246   -4.65051334573061    1.40074844579627
S          -5.30527689715026   -5.78597772671903    2.47138531706048
C          -4.21963872780543   -6.22289416110095    1.19044634162527
N          -3.26065077527997   -7.20743008315421    1.44713848595273
O          -2.49945012722130   -7.50283112750262    0.54149091602664
O          -3.25808302123108   -7.69803198131977    2.56390969707062
C          -4.43477862196811   -5.53515166266093    0.02516485594881
C          -5.50090893045703   -4.62213133098860    0.11796298024923
C          -5.97520253603864   -3.77545708885941   -0.94509075674716
C          -5.31774852415288   -3.54518456174254   -2.09725903641003
C          -5.85212835076635   -2.70858619899176   -3.13176850021003
C          -5.19918297556871   -2.32453814346857   -4.23989514014174
C          -3.78428709244653   -2.71233680173277   -4.54745363161450
C          -5.88544360991061   -1.43359891127585   -5.24991958161579
N          -5.61391221352544   -1.82373651755740   -6.60886498039567
C          -4.83755491463162   -1.11997655162604   -7.45620678370349
C          -4.35926076539123   -1.58214066629862   -8.64284328248794
C          -3.60354070018249   -0.78409011865016   -9.51919359126737
C          -3.04457904574962   -1.21509595328512  -10.69343977469115
C          -2.28379837738002   -0.44840720497875  -11.60822749270588
C          -1.82856122892738   -1.14594399080623  -12.68486121577147
C          -2.19901391567298   -2.51031504487202  -12.68438583436776
S          -3.16343398698903   -2.87589682498587  -11.27301935173521
C          -1.86571977575094   -3.47529464805228  -13.61453205042307
C          -1.10606515194279   -3.31438882816200  -14.79376032303722
C          -0.91094660917651   -4.46221760166712  -15.49946318018270
C          -1.50906149330979   -5.61283884188575  -14.92202143909419
S          -2.36334269485901   -5.14761649166090  -13.45093931403072
C          -1.54522411970678   -6.91798351523721  -15.32728907976989
C          -0.82138472736357   -7.53668960474441  -16.39018252679401
S          -1.61452040934159   -9.06470705694577  -16.87208601927484
C          -0.79233920203805   -9.53694884171945  -18.35103074487417
C          -1.28392428435093  -10.53199825230979  -19.13842260905340
S          -0.29449819461170  -10.83353645518254  -20.51255898594414
C           0.79478069117806   -9.59569247749133  -20.03032355389152
C           0.41418884525973   -8.99381726661859  -18.87072011801519
S           1.36953276259744   -7.70859314837018  -18.14766978213428
C           0.34381277948264   -7.08155892773840  -16.89117590303584
H         -13.22167950036206    0.44283233111706    6.20152608763695
H         -12.65681736725933    1.75003830498216    1.45505899038336
H         -11.46180916916879   -1.23053129582719    5.97660164814437
H         -10.85012699211634    0.04988207171315    1.19530160630412
H          -7.27803934988431   -4.47049446747216    3.77892477978181
H          -7.50232891347120   -3.19016110604560    1.12834673070757
H          -3.84552403750802   -5.71253039774203   -0.85511931671091
H          -6.92929692661869   -3.28765371990207   -0.79350474146128
H          -4.35032937330832   -3.99162541537830   -2.26688750623205
H          -6.86472335047542   -2.35827552320452   -2.97513096312449
H          -3.72047907872870   -3.76992755242022   -4.80529577916774
H          -3.14147855954365   -2.54138694453717   -3.68662817494894
H          -3.39660395161050   -2.13771799446736   -5.38501839939339
H          -5.53814083401630   -0.40254177338170   -5.12085779192384
H          -6.96749926606396   -1.44844346697473   -5.07574579406704
H          -5.80398380224395   -2.78669460518232   -6.84580531330097
H          -4.62420838404882   -0.10453827663953   -7.14702279230146
H          -4.55527664527115   -2.60438590554585   -8.93706509495060
H          -3.44030084231626    0.25120052292816   -9.24789945020282
H          -2.09715581630573    0.59775551126426  -11.43903998823622
H          -1.23475243764064   -0.72060899984612  -13.47375126837175
H          -0.72865805320738   -2.35387582697507  -15.09702862303787
H          -0.39939833090422   -4.49789275406833  -16.44357930911369
H          -2.21534445753859   -7.57842013198873  -14.79227669260812
H          -2.17194614077860  -11.10743612966179  -18.97462889684736
H           1.66226306272184   -9.37676650339660  -20.61887183646526
H           0.81038397694100   -6.21912708265030  -16.44382853157745
