100
 SCF done       -210.262915377466          0.000819314903
C         -12.90756689057360   -7.20700378532997   -3.54821492454507
C         -12.77544253441944   -6.69069389003190   -4.80706131445906
F         -13.83614619444474   -6.62964441627313   -5.62485941456021
C         -11.52898240564318   -6.21726027888182   -5.26068970379958
F         -11.42727321888834   -5.71702081782793   -6.50090131752887
C         -10.43102707624952   -6.26447121400831   -4.44784700371590
C         -10.53585781200547   -6.78869021812766   -3.14544022248771
C         -11.79531367450919   -7.26987151690841   -2.68561930153718
C         -11.92424097733327   -7.80170856851671   -1.38059204825801
C         -10.82855479389304   -7.84377050991678   -0.56070979215559
C          -9.57654813706521   -7.35770897341235   -1.02875806235470
C          -9.41760957591885   -6.84756422143240   -2.28345761782588
C          -8.56634613858950   -7.52448768646317    0.03191223865755
O          -7.36938018617220   -7.31116796107346   -0.07574077442952
C          -9.27384620742041   -8.09799782248498    1.18179628520477
C         -10.65519306736998   -8.31262802009902    0.81393232660802
C         -11.65707664214212   -8.80079011561034    1.61567875474469
C         -11.50954404255658   -9.18040162264304    2.96533368594107
N         -11.47393181146405   -9.49233538244712    4.07050093618753
C         -12.99112469792797   -8.97202133506788    1.19339837986265
N         -14.09117878697592   -9.13939020475587    0.90911307995100
C          -8.67746728452283   -8.50295102662112    2.35902544373865
C          -7.43081100912722   -8.12444433125462    2.85768702466827
S          -6.72106375614118   -9.10679956117476    4.14643120307787
C          -6.59335477457935   -7.03555178995830    2.61525542473313
S          -6.63847583962985   -5.62829392402389    1.62793719401425
C          -5.11714227142095   -5.14714670870543    2.35996670731171
N          -4.61856615488936   -5.93807924659724    3.23405539541797
C          -5.43060965833316   -7.00637556681181    3.42237466342063
C          -5.31579734960078   -8.09129939531288    4.30275652151155
C          -4.20580761004779   -8.32928886635351    5.11444410593955
C          -4.03673607689529   -9.39141464727011    5.96960770972690
C          -2.86592224462500   -9.70821393439989    6.66575683489840
C          -1.60299510421326   -9.16497587462308    6.50894039001119
C          -0.43718971193315   -9.58154811020743    7.19740066661535
C           0.71337364790026   -8.96187010661460    6.80035281070848
C           0.51556938052893   -8.01367304870561    5.77696053100073
S          -1.17634479527205   -7.92601923161064    5.35236570407030
C           1.42249249241971   -7.21612807503732    5.10057041957255
C           2.82682461112817   -7.13589015021147    5.20969647778611
C           3.39509662510789   -6.26157081634191    4.33175754108112
C           2.46903330077602   -5.59688857549606    3.48628254470822
S           0.84369787162151   -6.12431357508043    3.86249380816935
C           2.76700622624327   -4.69110119167996    2.49859615757016
C           1.85294131071679   -4.02448741439769    1.66663144304324
C           2.19464929136391   -3.15209866526507    0.62362846051671
C           3.53329363170437   -2.88729384760401    0.30802475837501
N           4.64424354479225   -2.70728357481672    0.08253429317384
C           1.06100871992547   -2.61819994496078   -0.03493811662178
C          -0.12028729351715   -3.09604305635494    0.52685756791190
S           0.11321808025783   -4.18965437530099    1.83291751919393
S          -1.57799308925726   -2.50499698702673   -0.20280232664634
C          -0.59656618366019   -1.59310220246035   -1.29840056456407
C           0.77879458515548   -1.73555859284055   -1.11916910467777
C           1.49950236488141   -0.99121916344392   -2.08502182043910
C           2.89512279764879   -0.85480347149998   -2.13713514269699
N           4.02893421719271   -0.70075405984574   -2.21591586179172
C           0.66436264337807   -0.31216806357183   -2.96781424410717
S          -1.02438605202794   -0.54462796780544   -2.58634121873892
C           1.01199365434902    0.54322071262774   -4.04854812310797
C           2.10567207433677    0.51443177763407   -4.84937845049482
C           2.44574562041346    1.73996260727937   -5.63956058714320
O           1.72712494409866    2.69136025795849   -5.82791440226246
C           3.84130910320668    1.54285829768910   -6.06950288441181
C           4.67883482657876    2.42135174926490   -6.69583086915402
C           6.00410088583561    2.02210829136055   -6.97791408728043
C           6.44093483266646    0.72002041114661   -6.59411884471655
C           7.76858222753317    0.33412700446994   -6.86845738551501
C           8.62066070369592    1.19741136420723   -7.49795914661511
C           8.18705448813349    2.48388396502631   -7.87889736030857
C           6.90680785138774    2.88896968442897   -7.62469228500761
F           9.04420556116386    3.30891684574355   -8.49382718603493
F           9.88030240021236    0.82900659211374   -7.76139180114675
C           5.55040214748029   -0.16994236320806   -5.95228662042669
C           4.26559908758844    0.23301437784634   -5.70451067160355
C           3.14568832287207   -0.46816105260098   -5.08708009433687
C           3.02776471306343   -1.82736511683638   -4.98922694327884
C           1.86281991485675   -2.48794137575107   -4.55324114780058
N           0.92898072982695   -3.06516198359992   -4.21748031772606
C           4.03347324356500   -2.73233330224179   -5.39288583665426
N           4.80621046393903   -3.51258629970739   -5.72359679368131
H         -13.86979659820570   -7.56520434896209   -3.21698087553199
H          -9.48286574456074   -5.89839053839603   -4.80951520369385
H         -12.88991230952093   -8.16334500547522   -1.06661569151377
H          -8.45384861718756   -6.48985049787809   -2.61252022850889
H          -9.21353776596864   -9.21225014849009    2.97702507536208
H          -4.64067110323360   -4.23666123128293    2.05301647458616
H          -3.44232109859769   -7.57191182628606    5.01518006101297
H          -4.88090746288480  -10.05483472948277    6.11396338948324
H          -2.93005701762689  -10.51964612163231    7.37966695892599
H          -0.48094618067337  -10.33804186900075    7.96122532575701
H           1.68610366668835   -9.16807637956641    7.20935472576170
H           3.37687987261186   -7.72782455160748    5.91903020498556
H           4.45090698053723   -6.07070986780346    4.25784027020813
H           3.81174351825391   -4.46469330767849    2.32654915607954
H           0.32683638982920    1.36541235221180   -4.23693114689621
H           4.33640664584952    3.40786940383557   -6.96896881187426
H           8.11514912320843   -0.64732699034819   -6.58513301942397
H           6.59110716195982    3.87690125421699   -7.92145473363115
H           5.90803852744545   -1.14240033721199   -5.65462520574826
