93
 SCF done       -174.688316190211          0.000548121115
C          -0.54784250352819  -11.32605665425578   -9.90185913250906
C          -0.42601867903855  -10.82049931066562  -11.16672249804673
F           0.10938772415069  -11.56709784279725  -12.14091610525280
C          -0.86007528685530   -9.51326372407903  -11.46086259860797
F          -0.72961214167924   -9.04234146893575  -12.70835325035965
C          -1.40881718970285   -8.72753470522689  -10.48534935231907
C          -1.54415201389436   -9.21879901846246   -9.17308609929340
C          -1.10805629726947  -10.54186994877831   -8.87476840405709
C          -1.23661066933003  -11.05777479919022   -7.56352348337449
C          -1.77925586673326  -10.27391431461415   -6.58131962420010
C          -2.20722636284991   -8.94870534081501   -6.88703346971701
C          -2.10050196637789   -8.42607343332230   -8.14395697061458
C          -2.73345555565142   -8.33042342371299   -5.66537933352080
O          -3.18192846298825   -7.19000550896319   -5.53918457077303
C          -2.61490839521000   -9.33614399447562   -4.61068712033294
C          -2.02937653114272  -10.53356521118964   -5.16471306421412
C          -1.74990369755632  -11.70228683301077   -4.50270946370179
C          -1.17368521206086  -12.83671201366684   -5.10823607072188
N          -0.70771867012528  -13.78918683022607   -5.54863559832633
C          -2.00341890102712  -11.91309900632135   -3.13273975009808
N          -2.19417464592106  -12.12371127003239   -2.02019173182872
C          -3.02208032390088   -9.07933485770134   -3.32029967125435
N          -3.53593522051209   -7.88313010930793   -3.01537930451871
C          -3.97419904080065   -7.44617695485560   -1.80999222197165
S          -3.93816932317481   -8.45519988660751   -0.39747044790692
C          -4.59264121510342   -7.13972945996581    0.52395746689705
N          -4.82670169267781   -7.34643751653366    1.88848867442122
O          -5.28257026351876   -6.41620024474138    2.52933256542172
O          -4.55359365986795   -8.44835122104807    2.33255890277776
C          -4.81842366802009   -6.00642952751488   -0.21152072538079
C          -4.47198001539400   -6.15786189517547   -1.56654101116908
C          -4.58842527683127   -5.15518545983010   -2.59546650884718
C          -4.95598350988575   -3.87904425506647   -2.38879484411496
C          -5.07024031965391   -2.86020713953443   -3.40387205670157
C          -4.36056076686338   -2.72938937705543   -4.53317850017982
C          -3.24404118888277   -3.62636719521793   -4.96600775987412
C          -4.64014433118524   -1.57002771105371   -5.46454357895740
N          -5.02715477131701   -2.01695042623684   -6.78110631528054
C          -6.29887690018553   -2.26077562355292   -7.14329433216102
C          -6.66414851044364   -2.82874115909346   -8.32594974108313
C          -8.00227832388438   -3.00373597483202   -8.71187857296434
C          -8.40890561914242   -3.51819656201587   -9.91630445945845
C          -9.73797285689229   -3.69895225503809  -10.36510744571054
C          -9.84213539603198   -4.19837789952856  -11.62787838556372
C          -8.59851392052354   -4.44540034427526  -12.25231793568237
S          -7.28772190214246   -4.03063165492047  -11.17711131497615
C          -8.37938836837705   -4.92537975427171  -13.53080572792733
C          -9.34492374133863   -5.30198090674951  -14.48787824827707
C          -8.82247672581456   -5.70528574635490  -15.67971688659739
C          -7.40912875861448   -5.66592415213331  -15.73332114281242
S          -6.77026039006567   -5.14470789207480  -14.18601864423864
C          -6.56196849157228   -6.02209641367648  -16.75489020890247
C          -6.93307742064009   -6.22466196791968  -18.09568296379724
S          -5.94572593520468   -7.26696373954491  -19.10768280117127
C          -6.94886296505986   -7.02996424201538  -20.52090873992773
C          -7.97739523943938   -6.16278609216599  -20.21424510400371
C          -7.96635078269425   -5.70274921447237  -18.86434224335801
C          -8.94010417179832   -4.64086657853419  -18.67495291491048
O          -9.11330144667511   -3.93039934750140  -17.70736659085181
C          -9.70634417946529   -4.53371456932123  -19.98750315074151
C          -9.06157910412074   -5.51476323413682  -20.95317895890989
O          -9.41300729436672   -5.68788197775932  -22.09701516167011
C          -6.56796673064103   -7.71591877594684  -21.72251154562248
C          -7.23900383159769   -7.69136527958666  -22.87379167991158
H          -0.21141310791337  -12.32970545813062   -9.69386253974544
H          -1.73747299884531   -7.72920692809059  -10.72848157558191
H          -0.89991354599924  -12.06332501581041   -7.37083574115094
H          -2.43495886721375   -7.42137459298331   -8.35356161172021
H          -2.94318444281345   -9.80917633872048   -2.52578977457889
H          -3.57761194408493   -7.23778990027414   -3.82539667473768
H          -5.22624509630571   -5.11661526106915    0.23066468114383
H          -4.39415480242650   -5.48225291056024   -3.60453782846063
H          -5.22620430026825   -3.55738568684633   -1.39210525868986
H          -5.79139812416791   -2.08542946567672   -3.17009662591115
H          -2.72351817366226   -4.03450807786259   -4.10233296578221
H          -2.52900401655771   -3.07222903369085   -5.57222842900064
H          -3.61027035668210   -4.46332999059598   -5.56100647552194
H          -3.73929630363525   -0.95376943576001   -5.56505481164041
H          -5.44172342659111   -0.94507028485484   -5.06483706358500
H          -4.30002148425305   -2.40059127522294   -7.36676574139215
H          -7.05268902380429   -1.92781471188952   -6.44260762550754
H          -5.89848053577458   -3.14818978263753   -9.02032454277714
H          -8.77607192432845   -2.70181702474085   -8.01787115813208
H         -10.57716617019043   -3.44808790189018   -9.74009267475062
H         -10.77404929228231   -4.38936309973468  -12.12812462652501
H         -10.39820952917688   -5.27181328382291  -14.27457010393365
H          -9.40752495015856   -6.07963889373792  -16.49768214384776
H          -5.51739547325299   -6.17034374307834  -16.51581114068041
H          -9.66885357812003   -3.51676138012812  -20.38357168179851
H         -10.76229614977976   -4.77314315128095  -19.84155266019969
H          -5.65594003003566   -8.29378764384698  -21.63332715645158
H          -8.14814585722992   -7.12807407650925  -22.99092133821437
H          -6.88250157535366   -8.23744640285785  -23.73003678107551
