94
 SCF done       -192.051030616858          0.000926429955
C           4.46677311851995    1.31808041515279   -0.79164631783928
C           4.90103905716110    1.65624821401121   -2.04314077102977
F           6.20442131968594    1.60147873073788   -2.34079954635684
C           3.98561250102204    2.06557463119281   -3.03373388364405
F           4.43820456039151    2.39043770365347   -4.25118565828151
C           2.64820084668106    2.13171299055101   -2.75874941816762
C           2.17046374464094    1.79033338676933   -1.47873990673243
C           3.09474595656916    1.37531240378385   -0.47659821998929
C           2.63817105919785    1.02595465975631    0.81578115495342
C           1.30013704054625    1.09120569133154    1.09775567799543
C           0.38348768948463    1.51139802091283    0.09016949146408
C           0.79434554634140    1.85217178568476   -1.16680275373649
C          -0.97274830557016    1.50074427332568    0.64911874472963
O          -2.01985051526487    1.79313260355105    0.07962223257379
C          -0.83910964689207    1.05994972192074    2.04145558207899
C           0.55419589497983    0.79498722192978    2.32053327711906
C           1.09084393338076    0.34415884431394    3.49727853583211
C           0.33241128821112    0.05623963459988    4.65086206601773
N          -0.25267957370025   -0.19052323404528    5.60694129459539
C           2.46568010334566    0.10438825836954    3.70051898597837
N           3.57164579315593   -0.10913418810237    3.92018957694308
C          -1.92936147337580    0.95627825659355    2.87029911043731
N          -3.15182803741954    1.25532152385667    2.41722839059299
C          -4.31058682666762    1.24015345865478    3.12591108805894
S          -4.31712932393733    0.95295310379067    4.83941745481946
C          -6.02665553839517    1.23572089638340    4.86007345601953
N          -6.68865810276423    1.12403226115026    6.09536757512887
O          -7.88577162508137    1.32334107476277    6.11302336194089
O          -5.99862680815223    0.83697998673194    7.05547663802419
C          -6.54837243820100    1.54007262716736    3.63390038911036
C          -5.57865798226885    1.52675903967019    2.60963300243877
C          -5.92762359109436    1.79157137556525    1.23661747261902
C          -5.28567720180744    1.33309849958164    0.14380485223951
C          -5.65349702731039    1.60443786085017   -1.20861389316014
C          -6.70880843265468    2.33732292993774   -1.73543149009896
C          -7.75147008256742    2.89161471074137   -0.97617097812799
N          -8.63992528751638    3.28697596876303   -0.36704967505611
C          -6.70505665733293    2.34514714189966   -3.15700548845289
C          -5.66537238017384    1.57924796499692   -3.67319810333897
S          -4.65061920836707    0.90499016738329   -2.46174992879196
S          -5.66737363111011    1.41519652483488   -5.40172286350438
C          -7.09440984329842    2.40358176097921   -5.44119231917545
C          -7.52278882227156    2.86249578115066   -4.20186584950689
C          -8.64450442765604    3.72794983763270   -4.31290011926903
C          -8.98967718536013    4.62204085963498   -3.29090049602312
N          -9.15711573322955    5.42703525943297   -2.48933386182667
C          -9.11346850502053    3.82411693763063   -5.62522375725595
S          -8.07674328993332    2.94067783675686   -6.74838477133971
C         -10.24518967642113    4.47430125689728   -6.14987014157808
C         -11.40280797237312    4.80254685517065   -5.48391953072343
C         -12.50752555800058    5.48905297879355   -6.05195849373195
C         -13.56356331313472    5.64641159081754   -5.20581963784336
C         -13.35089150805744    5.08972856482534   -3.92675952008600
S         -11.77823207651865    4.33967286817577   -3.83875418016948
C         -14.18709987088791    5.11977699285446   -2.82126197644495
C         -15.45907305738324    5.72015726996437   -2.70492056598710
C         -16.02299174389204    5.58461698827189   -1.47088266515608
C         -15.22211895049488    4.87384050910658   -0.54606777069771
S         -13.71249470617984    4.40396411351376   -1.30601344763489
C         -15.42988506161384    4.60215744301838    0.79277432104288
C         -16.60618064200845    4.76633015329779    1.53592253093031
C         -16.63129926597472    5.04297931326707    2.89255506464468
C         -17.96530490722817    5.37314713119605    3.26291376246321
C         -18.36836962660238    5.75047094328489    4.55242701688874
N         -18.70027070039519    6.06157467354707    5.60608232085795
C         -18.79381489370378    5.26506133240626    2.15694198598322
C         -18.01479057992185    4.79992625037991    1.06721689376595
C         -18.52545482102563    4.24634443632134   -0.08662993175578
C         -19.87560137736402    4.43110950066984   -0.58895264904777
C         -19.99439137121465    3.77306951077415   -1.75884109136609
C         -18.73290314623994    3.08043180938317   -2.02303509210697
C         -17.85760794222925    3.37018749533971   -1.01706668442095
C         -18.48875565832852    2.27037130430392   -3.13548762512490
N         -18.28873403588378    1.62282301411735   -4.06349706204568
H           5.18081799477523    1.00672912555480   -0.04529067370276
H           1.96083709418723    2.44743358557425   -3.52788606430428
H           3.36276613391498    0.71593650512757    1.55106693786193
H           0.07958446323367    2.16606882745892   -1.91229542647870
H          -1.84745930558319    0.63030245933599    3.89921001014209
H          -3.17129547730239    1.58659881085114    1.43661482733113
H          -7.59189287691426    1.74547499966144    3.47589338745042
H          -6.82705560618550    2.37638324302443    1.11356032361082
H          -4.43693195453561    0.66959035837133    0.23425361631116
H         -10.22868391965932    4.67105474626267   -7.21427359802623
H         -12.47831128517527    5.85255288323789   -7.06370510729772
H         -14.47896891245760    6.14579273198752   -5.46661358078908
H         -15.91992037819580    6.24151533266527   -3.52409197252268
H         -16.96802165584581    6.01402211974225   -1.19237442297383
H         -14.55721300890131    4.29611855779797    1.35804364885785
H         -15.78155198278074    5.09271724096290    3.54714535576525
H         -19.85830927985340    5.39863067483846    2.15796069239441
H         -20.61724639331717    5.04968039820524   -0.12176446696246
H         -20.84910680487625    3.72754611343854   -2.40754335701906
H         -16.87541633019120    2.95869157099411   -0.89366530159988
