89
 SCF done       -173.680713078657          0.000667629741
C         -15.44176444974299   -6.60996453269086   -2.22099950329898
C         -16.28477076074721   -5.75063507447990   -2.86927808303492
F         -17.58844967351080   -6.03370894123393   -2.98308936842026
C         -15.79667571793846   -4.55323545121175   -3.43124963152295
F         -16.64629533054790   -3.72586225669668   -4.05857411729575
C         -14.46944660163741   -4.23565627705783   -3.35277479919937
C         -13.57282731750064   -5.10306312496766   -2.69902497445462
C         -14.07083245064961   -6.30292684917767   -2.11220746605706
C         -13.19502972453662   -7.18286417116291   -1.43655425841650
C         -11.85850603489945   -6.89228945948972   -1.39003586519645
C         -11.35861814119417   -5.72087316984594   -2.03265784700333
C         -12.18877458262128   -4.82657410480337   -2.64645460894423
C          -9.89525787833039   -5.72175460426054   -1.94642240049227
O          -9.11166675515367   -4.89363381278111   -2.40187329240796
C          -9.53224887934444   -6.93443488229816   -1.20217854834788
C         -10.73616376925940   -7.63252748142828   -0.82391734146168
C         -10.82956334429879   -8.75944794744154   -0.04855098483379
C         -12.03748539885697   -9.29814410087924    0.43243735152636
N         -12.96744813823077   -9.78622482653238    0.89817244777830
C          -9.72624711736145   -9.51728431855864    0.38865456430525
N          -8.86888671174307  -10.19332010505122    0.74551476183791
C          -8.22574603848191   -7.24313484982090   -0.92130484779082
N          -7.23456236659519   -6.45422106878789   -1.35309903707195
C          -5.91567110576154   -6.59227181354041   -1.07077316969850
S          -5.35037823885088   -7.85062530064452   -0.01518946429653
C          -3.73733210229374   -7.24076124540295   -0.18956006978051
N          -2.70424647528811   -7.89911169509968    0.48936457674313
O          -1.57735110107136   -7.45476036289999    0.36568872890912
O          -3.01404077389892   -8.86988313171657    1.15674292859714
C          -3.64824068408385   -6.14672206737540   -1.00718223873850
C          -4.89339414813469   -5.75264661151577   -1.53456821281454
C          -5.10200247192066   -4.67593821167959   -2.46545603320946
C          -4.15969715063014   -3.79223248299291   -2.84906190493657
C          -4.41495362354029   -2.83272168093521   -3.88162587848791
C          -3.54465764748788   -1.96690477667801   -4.42703108381226
C          -2.13957882909144   -1.74962535954597   -3.96534501536408
C          -3.94168880608151   -1.17007956168792   -5.65568281817930
N          -4.85535550649963   -1.90132159615560   -6.50603995332703
C          -6.20453816376003   -1.79452421299769   -6.36559794576158
C          -7.05480363857379   -2.84853169436829   -6.44245026796456
C          -8.45996557264970   -2.76055272842996   -6.37260964227276
C          -9.26177348549602   -3.82782042591440   -6.07249025422936
C         -10.67660701490364   -3.87558669363782   -6.04288289410862
C         -11.18959238527513   -5.06946518075301   -5.64028333999936
C         -10.20761448357264   -6.02734081359501   -5.29054152682004
S          -8.60961716949561   -5.38566959767920   -5.56221753032110
C         -10.41670417449256   -7.26618490563894   -4.72215368390236
C         -11.65238431969791   -7.86951171123951   -4.40374235245068
C         -11.54843233264034   -9.04723786723498   -3.73062892164400
C         -10.21701921244194   -9.46366490074885   -3.48234148691169
S          -9.09804749926749   -8.29874701554151   -4.19332049616707
C          -9.72109410962907  -10.55041526905970   -2.81262570851385
C         -10.43157969932310  -11.52340794151062   -2.07513829061749
S          -9.53106244850878  -12.88151263167255   -1.41038648883704
C         -10.88335315241597  -13.56566420961588   -0.61126522393881
C         -12.00284877842765  -12.79827237656025   -0.82791872741976
C         -11.74218358678704  -11.65958629003033   -1.65499902081058
O         -12.87149836126790  -10.92444305060576   -1.80761476127409
C         -13.82677327766155  -11.56778221446593   -1.08027851473251
N         -15.09462864086582  -10.95601366367992   -1.00927842404188
O         -15.98179465091973  -11.57452947629516   -0.45944257315862
O         -15.21209228595639   -9.84867156831914   -1.50264909432978
C         -13.37718288247641  -12.70949646237190   -0.47682277363722
H         -15.81498781211178   -7.53527381162940   -1.80953097622796
H         -14.11153152377290   -3.32012710230542   -3.79771296419901
H         -13.61034347022491   -8.07875717022218   -1.00522909875130
H         -11.79296549209386   -3.93307551986630   -3.10478495573505
H          -7.95006462377553   -8.11924372040491   -0.34818158567039
H          -7.55921276755897   -5.64558444409392   -1.91262532916363
H          -2.70822138637843   -5.67050730586724   -1.21504466410380
H          -6.08627757967328   -4.60248327071436   -2.90980355101752
H          -3.17163991726351   -3.82861322458998   -2.41754976400717
H          -5.41983938645901   -2.87363695915366   -4.28247595613662
H          -1.44218412400261   -2.28527309542085   -4.61115032919515
H          -1.99285490235597   -2.08839017524839   -2.94496189596635
H          -1.89135099062365   -0.69068399176905   -4.01843511096162
H          -3.04162222878531   -0.93422236405781   -6.23326408950139
H          -4.41388520687612   -0.22599228952580   -5.36684142838318
H          -4.53867887887419   -2.84612909568959   -6.69284230083348
H          -6.57108568492965   -0.79185727045932   -6.18996216038319
H          -6.63665100557919   -3.84628691239494   -6.50976760635212
H          -8.93064133931087   -1.79961373640698   -6.53017410319943
H         -11.26828659419479   -3.02381251407660   -6.33047740042123
H         -12.24029184386210   -5.28710322244102   -5.56911119750150
H         -12.59031030279485   -7.41472826396255   -4.66856736156949
H         -12.39371137505529   -9.62398227421707   -3.41242854354902
H          -8.64825393497932  -10.68604496459103   -2.81951684070611
H         -10.77690049868728  -14.46057131701692   -0.03504295503249
H         -13.95380995575446  -13.36317577374211    0.14366957088773
