93
 SCF done       -196.148571467851          0.000569977103
C          -4.82420453085710    0.94111153607000    4.57504666695385
C          -4.09210530582920    1.14494827547446    5.71083942596888
F          -4.21167054071547    2.29177716576189    6.39435602450413
C          -3.20790807457803    0.15337167410399    6.18154707986965
F          -2.51074086783075    0.37350555039826    7.30903949666648
C          -3.05786475207906   -1.02082481483733    5.50161504257753
C          -3.77093442076836   -1.24715930215572    4.30962820861933
C          -4.68593749964354   -0.25851286014987    3.84632942593023
C          -5.44618356825145   -0.48505963460315    2.67731634524600
C          -5.27271334132391   -1.65313448950636    1.97956336624894
C          -4.30149382582311   -2.60040565033248    2.41424980946299
C          -3.57266540600257   -2.42291238685156    3.55476501249463
C          -4.25583490084615   -3.72158531306812    1.46737592651160
O          -3.41341785683576   -4.58521627360027    1.38529313915575
C          -5.41010362297453   -3.50541298940309    0.53670723258409
C          -5.95081110363909   -2.17461875702640    0.79841333102786
C          -6.94930259480619   -1.54771815870723    0.10778689509030
C          -7.64228497882492   -2.08238062460907   -1.00132316243347
N          -8.26294715181119   -2.45421164276808   -1.89182214227468
C          -7.44279531411802   -0.26126379726159    0.42215896362187
N          -7.88907270163134    0.77612382521629    0.62342831167524
C          -5.82837752945946   -4.39392842640654   -0.39074232169497
C          -5.37797539839063   -5.76130634844804   -0.48237423421272
C          -5.23285633621451   -6.42746509956714   -1.69256007082147
C          -5.43239852074414   -5.86242435300656   -2.95579321368769
N          -5.60216423349722   -5.38638224214102   -3.98555769517597
S          -4.70374484536776   -8.06729250127263   -1.51577880241972
C          -4.69967153287665   -7.89149956767798    0.20488977695039
C          -5.08901099610922   -6.62278004201425    0.61070801336748
C          -5.30712170667141   -6.30279548285672    1.96309257922758
N          -5.54841056124509   -6.05121189322092    3.05565131038347
C          -4.32364312476500   -8.97051665789903    1.04948404025417
O          -4.06452678916627   -8.74795727110698    2.36228564909451
C          -4.16930512506297  -10.31423197254435    0.78924663849015
C          -4.23492435960926  -11.33461507659015   -0.26371713634385
O          -4.48477033133334  -11.22978795448457   -1.43619101850778
N          -3.92558738358827  -12.50957654528844    0.40764618786122
C          -3.66053215398495  -12.36932889545195    1.77513744485338
O          -3.37458536414336  -13.27051318488475    2.51731823845512
C          -3.82205717935932  -10.93317231506838    2.01220141850932
C          -3.75296786613908   -9.92818115936281    2.96721187264334
C          -3.40333568182289   -9.97221570159870    4.33331328619153
C          -3.14238224516356   -8.86020100507974    5.08260385763765
C          -2.78992839858794   -8.92812232266551    6.43773857198102
C          -2.33828829687989   -7.87669869615562    7.19853225664767
C          -2.01728018152270   -7.92972091929487    8.57842025822715
C          -1.53505979476554   -6.76289699732092    9.08423709123414
C          -1.42604823013930   -5.72824494893365    8.12485306797715
S          -2.00606707531570   -6.27306916390932    6.56993529857502
C          -0.89896418991704   -4.46492692447180    8.33482098549151
C          -0.45475471968365   -3.92008953540426    9.56020012989843
C           0.03974051331001   -2.65513388013253    9.45320931988984
C           0.02327014613799   -2.13315466396435    8.13852318727895
S          -0.65994410506471   -3.31514681468738    7.03989002436954
C           0.48878817976776   -0.89029564321318    7.76584211212286
C           0.47467587210137   -0.39286131759389    6.46422958364043
C           0.97400219355988    0.84260294055618    6.10712446340398
C           0.96183527953538    1.44071355703705    4.79564059436348
C           0.37312951359768    0.94070278485459    3.65652005256239
C           0.36447432104324    1.60005303058075    2.41106896958032
N           0.31057790276117    2.08304250969514    1.37036968997636
C          -0.32017862691380   -0.27836304418814    3.56012424487860
N          -0.91172027498360   -1.25041665417019    3.39571600616262
C           1.67364864386444    2.71352625631203    4.87706025103477
C           2.08739769546821    2.91707497615235    6.21570801769718
C           1.65936895889648    1.76782582629664    7.03836949963861
O           1.86103225001988    1.62483800750875    8.22738041961787
C           2.79343655553491    4.02486396310425    6.61426256227090
C           3.11245567183986    4.97946662529158    5.64206852687752
C           2.69850059258640    4.76654826982975    4.30600275984413
C           1.98037638106272    3.64619565473727    3.90454011180043
S           3.20629862720072    6.06208167419006    3.26547157841009
C           3.95775310515382    6.86088939895069    4.62091315486821
C           3.83501515753649    6.19419813961464    5.79342424217101
Br          4.83624229537318    8.49700014539445    4.35992428764534
H          -5.50545784525308    1.70576124406036    4.23549523449006
H          -2.38210480736558   -1.77594835997525    5.86758945578421
H          -6.14862152485495    0.27046370504955    2.36474358760440
H          -2.85127635005405   -3.15955749282453    3.86966195373314
H          -6.55610692060889   -4.10106164745117   -1.13689622039626
H          -3.88765928847541  -13.40563675465883   -0.05740737773708
H          -3.30242895576797  -10.96195690720234    4.75475024368345
H          -3.19157022494327   -7.88687698382512    4.61113153584122
H          -2.86101683833210   -9.89021077068780    6.92916579663037
H          -2.15503557549817   -8.83055511668880    9.14949654115006
H          -1.23883272044532   -6.62538286804475   10.10807716505195
H          -0.51760492604635   -4.46612179492879   10.48377840579454
H           0.41993531124042   -2.07612949078676   10.27546297050327
H           0.89285390229586   -0.26291430161427    8.54762906302218
H           0.05384269614655   -1.02617681493873    5.69279530490919
H           3.09395050033827    4.15018043960607    7.64263541354816
H           1.69219516230826    3.53012364881319    2.87329670354081
H           4.23792406689301    6.54259039611292    6.72682268205454
