91
 SCF done       -171.276255789339          0.000850810948
C         -18.34653647706979    6.14883938454031   -6.31657452345448
C         -19.29013024058441    6.65340223881926   -7.16695494308548
F         -19.03035448683540    7.76166797321182   -7.87962399966115
C         -20.53987572357608    6.02121073197720   -7.30585503841369
F         -21.44829658914600    6.53829073104267   -8.14843618019355
C         -20.83048534008898    4.89302803924726   -6.59011912803811
C         -19.88055289823215    4.35063770288802   -5.70399908854393
C         -18.61485312114857    4.98770127615609   -5.56507891714715
C         -17.64325559633311    4.45933449314037   -4.68330666022484
C         -17.93095988080240    3.33248049369247   -3.96206658386483
C         -19.19896154187803    2.70593974565756   -4.10375416752777
C         -20.15509522080649    3.18810834776106   -4.94698739410301
C         -19.25321305828625    1.51705390052924   -3.22524746991680
O         -20.21060094895146    0.78872868831381   -3.06169798004168
C         -17.92241231188679    1.43601223913981   -2.58863523335706
C         -17.14085103680150    2.56572520290992   -2.99982068555413
C         -15.86810218869736    2.90396036886321   -2.58433108299847
C         -15.08666534850659    2.20183824263799   -1.65021912701846
N         -14.36271124008790    1.69314200222882   -0.91445849040198
C         -15.15287389447058    4.01294423290620   -3.06416942962228
N         -14.49838063519065    4.88773231035891   -3.42518316758688
C         -17.49533736468287    0.37267799309620   -1.81336633865557
C         -18.26039149982923   -0.74495989466547   -1.50861708649528
C         -17.74838147347457   -1.84441989466442   -0.84377178248782
C         -18.44892405924096   -3.01007902795366   -0.46495764763234
C         -17.68056475000505   -3.93929794972077    0.17803215522418
C         -16.33228266720893   -3.55472385535870    0.31545899718067
S         -16.07519089659555   -1.97038919924602   -0.37157008936509
C         -15.27887187776320   -4.25482626383592    0.88451813222275
C         -15.30838337751095   -5.47384324212234    1.59446267376680
C         -14.08665195716205   -5.86476360162210    2.05993880240594
C         -13.03080098582368   -4.98449334653126    1.72445324217684
S         -13.65037136195200   -3.63924726057704    0.78937521968835
C         -11.70395595311150   -5.09993744519078    2.07211424171527
C         -10.72969376503722   -4.18391269157884    1.65451749398452
O         -11.08833979136208   -3.19674335937646    0.80181394951586
C         -10.00119988024394   -2.43347580372526    0.53497346098091
C          -8.91323066982202   -2.92551687724674    1.23193226195635
C          -9.36075223375043   -4.05111808722901    1.94761573000443
C          -8.51187224666946   -4.86644570384275    2.80925406763874
O          -7.33652502617837   -4.66602928608557    2.99357167736397
O          -9.15900367093766   -5.89085531994126    3.39929235284405
C         -10.11557993035711   -1.35010620555964   -0.37739086730392
C         -11.24995879238923   -1.11042329891285   -1.07451956550183
N         -11.38128323354220   -0.09469743483105   -1.96604483939511
C         -12.44918379423521    0.12902121498437   -2.76868900097937
S         -13.79421656485654   -0.95852085343831   -2.78791449302591
C         -14.58018358489782    0.05786279858762   -3.95665510657676
N         -15.85509119291608   -0.28683802460661   -4.36979203696127
O         -16.42137758634751    0.45381007826201   -5.16530696105507
O         -16.34513890604908   -1.30350660308716   -3.88967449119815
C         -13.82990964382587    1.15329499479432   -4.31281582188341
C         -12.59476108564310    1.21404085984922   -3.64970427579570
C         -11.60491426250887    2.24492186747849   -3.81830884605525
C         -11.79777002871829    3.40126640714083   -4.48034967982034
C         -10.77762631382960    4.39761513751960   -4.60788007193855
C         -10.95750838339115    5.62090863174014   -5.13146140890086
C         -12.27590750043284    6.11749056099602   -5.63671194144633
C          -9.82248599594307    6.61441077507332   -5.23799785182157
N          -8.49765837956165    6.10484940044442   -5.00483913900455
C          -8.03179151835423    5.89318730253121   -3.72829982715183
C          -7.05303858609327    5.05590715520393   -3.39996088660933
H         -17.39368857707875    6.64600111023206   -6.22263997811820
H         -21.79279839048813    4.42013740676756   -6.70809481083694
H         -16.69518256392116    4.96601273470214   -4.60445509388084
H         -21.10762798039735    2.68885860904345   -5.03997897283663
H         -16.47741575869070    0.38487610538517   -1.43855019603347
H         -19.29179733983224   -0.77682465170992   -1.82761679078663
H         -19.49688500299965   -3.12553667273095   -0.67675187852763
H         -18.04494651628556   -4.88596402035748    0.53507002866341
H         -16.22144992281233   -6.01684848829982    1.76002197752617
H         -13.90920663356584   -6.75687247784407    2.63394035192000
H         -11.38560506091724   -5.91826106403452    2.69656888421077
H          -7.91403592612388   -2.54196980919095    1.23154465518592
H          -8.53327277558753   -6.38309771103067    3.95410140146060
H          -9.23736959536925   -0.73564999058802   -0.50543699468669
H         -12.11624717909518   -1.74466573463564   -0.95189794533882
H         -10.61961631000714    0.57097806828776   -2.03115196759945
H         -14.17636272847494    1.86720699308837   -5.03737810424379
H         -10.63688151279394    2.07407167279006   -3.36282184217775
H         -12.75750768120769    3.61604624228455   -4.92094937321448
H          -9.80270683139929    4.12405525943271   -4.22495826568227
H         -13.06445490913988    5.90969089284585   -4.91695504713747
H         -12.53548684049992    5.62402457987984   -6.57368684099320
H         -12.23840716211594    7.18902877023470   -5.81687034731682
H         -10.00529606501523    7.42583937241027   -4.52287757869289
H          -9.84367367070887    7.05683937584581   -6.24179925942284
H          -8.18509945223633    5.42316469686364   -5.68283583130986
H          -8.49757270313591    6.52394049608466   -2.98270887376221
H          -6.57982589233085    4.42252437818102   -4.13152549931940
H          -6.68056044826543    5.00062086596083   -2.39506092127129
