109
 SCF done       -220.969921945023          0.000464190762
C           3.12890591706410    3.07144917664059    2.92439159597978
C           3.64998976378745    3.15247766701505    4.18499815537713
F           4.22963603920110    4.28410869738934    4.60256261608302
C           3.58452228660078    2.04932180428930    5.06125402637426
F           4.10363598837311    2.15831986532234    6.29038686311094
C           2.99907066493128    0.88012407252410    4.66383884037933
C           2.45280786964321    0.76497313068950    3.37048205229819
C           2.51651217904868    1.88019316912248    2.48428725918948
C           1.96767001861627    1.79155488492721    1.18573298524060
C           1.36771470674963    0.62511385693186    0.78564404793178
C           1.31654762470053   -0.48572153666889    1.67431784350230
C           1.84350176526607   -0.43106424648255    2.93326466779457
C           0.63792473596686   -1.61410222782426    1.01873609989114
O           0.52955025945278   -2.74491933797068    1.43466487984005
C           0.22659150891628   -1.10500404599398   -0.32620102700594
C           0.69713930784609    0.26714044692318   -0.45810737139531
C           0.46543567143929    1.10230288273730   -1.51504600860838
C          -0.27617397436773    0.76185354234508   -2.66799701868125
N          -0.88776702328453    0.56128392965437   -3.61790407223315
C           0.91777307895564    2.43872555882463   -1.58198031534137
N           1.26468116971043    3.52595322574810   -1.69844814406306
C          -0.36861331373504   -1.86688633117259   -1.27118800509635
C          -1.00586530786544   -3.13115595605553   -0.99922743765740
C          -0.94353387422202   -4.22668036921686   -1.84103243243450
C          -0.18609003013657   -4.32382576962706   -3.00845461836928
N           0.44154922296432   -4.39149293822733   -3.96714005667208
S          -1.87549671030251   -5.56822397584583   -1.25346191053566
C          -2.40667040646379   -4.64919458294990    0.12562481673422
C          -1.85604528619615   -3.37632350008987    0.11788332433534
C          -2.16791608337673   -2.35805067623135    1.03343824058541
N          -2.41207712213693   -1.47357389434812    1.72295994822893
C          -3.32591330054667   -5.20664463167031    1.05421950803750
S          -3.85639747315774   -4.32811175354364    2.46506011278769
C          -4.95011472464438   -5.58550317254741    2.86667326984181
C          -4.92585529328920   -6.61264345299840    1.97813149536283
C          -3.99131630772510   -6.41750457267120    0.93540701184068
C          -3.75840985954751   -7.40436235583052   -0.11348889203645
C          -4.69400066330633   -7.83126097581459   -0.97954622086232
C          -4.44348129811464   -9.02267659767038   -1.87611812398278
C          -5.46845647447332  -10.06754672697531   -1.56847783168152
S          -6.84155428453612  -10.29000706501748   -2.60869400640870
C          -7.54695686568350  -11.43537499932635   -1.51679362354283
C          -8.87696755989546  -12.03150810414122   -1.81552081665602
C          -8.88632225656979  -12.78146065615969   -3.14699648031348
C          -6.74326536320889  -11.63054292463618   -0.43818656931384
C          -5.56725931735583  -10.84681913253842   -0.45892376185109
C          -6.01022453784947   -7.24526882519142   -1.09023762924826
C          -6.32694208198116   -5.96412609243976   -0.82573634951732
C          -7.63892499399143   -5.40938245575348   -0.90635228298106
C          -8.87325683250945   -6.02454998068210   -1.06608321710983
C          -9.06270698434369   -7.41471651279156   -1.11511125239254
N          -9.24222068898842   -8.54799136363351   -1.11601193038141
C          -9.94568292807761   -5.08784469499296   -1.09182340616401
C          -9.48684017820742   -3.78648512330535   -0.92698323769020
S          -7.78226945069832   -3.67159692293638   -0.75584313308232
S         -10.71622473332773   -2.56088322323997   -0.92011767708222
C         -11.88264917468824   -3.81378984760435   -1.15321060768730
C         -11.36535265546734   -5.10738582891755   -1.23318136514165
C         -12.39899457878690   -6.05475656466492   -1.43332200492398
C         -12.24785275402884   -7.44564823905711   -1.57799175416886
N         -12.18401149330785   -8.58356415303026   -1.69550743566008
C         -13.65602819368444   -5.46744536190087   -1.53138217287602
S         -13.58741178309570   -3.72949005976957   -1.32101354525318
C         -14.88529815886580   -6.16368440099782   -1.68098192603360
C         -16.07012618974679   -5.68964638190696   -2.13960149830546
C         -17.33911620982134   -6.39395841195915   -1.78206146782625
O         -17.44469138784156   -7.50663327485876   -1.32908448442680
C         -18.40514768203451   -5.40336730433840   -2.03446903310487
C         -19.73647306977124   -5.48505847642712   -1.74202097902364
C         -20.57498050254372   -4.38985749084627   -2.04756810964993
C         -20.01538985765713   -3.22458266290793   -2.64941003171842
C         -20.85707404907816   -2.13262057353156   -2.94234760436088
C         -22.19145396379332   -2.19496535316934   -2.65397525815777
C         -22.74432143122587   -3.34841657706693   -2.06037789541540
C         -21.95436360055838   -4.42357884837892   -1.76372594941423
F         -24.05426370950432   -3.38022913230998   -1.78739486658720
F         -22.98917214395799   -1.15732057063351   -2.93225320643630
C         -18.63525087667830   -3.17127562866219   -2.94890747964318
C         -17.84357087764593   -4.24778307299067   -2.65039082452751
C         -16.42086706706968   -4.48579421665706   -2.86896798314626
C         -15.64586429889079   -3.86008413178653   -3.80755215597979
C         -14.35364903853943   -4.30203723636720   -4.16296461625012
N         -13.31430496972865   -4.66023759400245   -4.49196674665070
C         -16.08285175198195   -2.75903308086609   -4.57310250090066
N         -16.39125524459648   -1.85110594474342   -5.20277142479738
H           3.18560776335935    3.92533200739991    2.26744565167508
H           2.95655589693003    0.04555199954587    5.34597782698627
H           2.03437115308350    2.65104182428106    0.53851521242777
H           1.78684944562923   -1.28767298492596    3.58734422600507
H          -0.40104244945479   -1.53901635727194   -2.30253126124027
H          -5.55110661762001   -5.49239248660853    3.74956267363350
H          -5.53827808185184   -7.49282699302877    2.05297444837257
H          -2.77890964948993   -7.86857767683117   -0.11518486692491
H          -3.43705786836995   -9.41037640285979   -1.70734787861192
H          -4.53221240946648   -8.72359247395930   -2.92274300738628
H          -9.62063855707083  -11.23028766391410   -1.84758854142964
H          -9.14308816868125  -12.71078277607305   -1.00286781291763
H          -8.64230976528541  -12.10464046039489   -3.96305358885067
H          -9.86974458636407  -13.20555085200614   -3.33237151214019
H          -8.15564829516700  -13.58811794393725   -3.13657027452163
H          -6.98869734076034  -12.30686518947894    0.36148761368291
H          -4.82558155252744  -10.86240069170914    0.32084607676122
H          -6.78197405078975   -7.90218713469076   -1.46272839527703
H          -5.55702810111916   -5.25532144082750   -0.55477874345857
H         -14.89374187192624   -7.18622620161455   -1.31307504689353
H         -20.14397759123239   -6.37260172518399   -1.28255978224483
H         -20.45109313599158   -1.24412588512550   -3.40014389211746
H         -22.39267327170948   -5.29844692057712   -1.30969167235937
H         -18.23354037430314   -2.27568935503600   -3.39588732514283
