105
 SCF done       -210.362720517131          0.000892887203
C           3.34135182697198   -1.07458777162511    4.54229642278046
C           4.66157519580250   -1.36784982892356    4.74102152813297
F           5.57378814967413   -0.38376996625397    4.76623540112563
C           5.08066460548782   -2.69957987056756    4.92140587936443
F           6.38315618138196   -2.95916746540693    5.11526653639685
C           4.17315070799500   -3.72178377348489    4.90021799769246
C           2.80639815385664   -3.45194985479525    4.69807162899696
C           2.38113029251549   -2.10504164016863    4.51633945916838
C           1.01195706434516   -1.80921798189400    4.31564645208257
C           0.09897090815793   -2.82855651385470    4.29850447886591
C           0.53332586577597   -4.17104207546474    4.47805271132210
C           1.84506434039253   -4.48845944735599    4.67297584820099
C          -0.63922217890694   -5.07136827180068    4.42221510213913
O          -0.61915549123385   -6.28269863984683    4.53484852451082
C          -1.80416969392534   -4.19362143383958    4.21224251081009
C          -1.35488408695146   -2.83217559766833    4.12526933927632
C          -2.12441931938271   -1.70759601250148    3.91761934184154
C          -3.52099437378851   -1.68433972129001    3.74080030436901
N          -4.65471289040367   -1.56871701737240    3.58671837498684
C          -1.60690739157622   -0.39987087795189    3.85223228149907
N          -1.25470162517770    0.69215161293196    3.78790439809813
C          -3.11704780644729   -4.63442317648845    4.14789302392420
C          -3.52019156366983   -5.95544567722662    4.25278664425331
C          -4.85465039873671   -6.33977015383833    4.24789476072925
C          -5.35883955987728   -7.64424964806442    4.39262831062531
C          -6.72854191743253   -7.71452998036320    4.40764418258151
C          -7.35479942770084   -6.46723466154803    4.26819475385727
S          -6.17095519576588   -5.19772583232396    4.10092738357559
C          -8.72271596841339   -6.18356833099271    4.29589401811606
C          -9.78413578691114   -7.06754818823192    4.53022061867471
C         -11.01234281096065   -6.45203856880846    4.56796067923728
C         -10.96348250124495   -5.06966021482393    4.34939631193608
S          -9.31294472526409   -4.55814596628357    4.08734647617294
C         -12.03621705500784   -4.17750396181145    4.36601246503630
C         -11.93763340201244   -2.83746073699591    4.08074547193847
C         -12.98752135681345   -1.92433775879183    4.17144407798635
C         -12.94908679086979   -0.56655905863346    3.82425805312662
C         -14.12454962540383    0.10394507653958    4.05045775330670
C         -15.13256877891676   -0.70083379595109    4.60330011260074
S         -14.56341783423943   -2.34180007667236    4.79790159920936
C         -16.40650182130401   -0.31495452463623    5.00634846156457
C         -16.99655046652974    0.95923333077587    4.89859440061813
C         -18.24904889469532    1.04277992494474    5.43326864713865
C         -18.71175279669884   -0.16908903527215    5.99804685176307
S         -17.49592183580889   -1.42786992251253    5.79560859523725
C         -19.90210106451213   -0.37728564402745    6.63566857647913
N         -20.25856491795574   -1.57356014540179    7.16435502895476
C         -21.42030386303919   -1.85543646046369    7.79179596367767
S         -22.63594496567584   -0.63830920188803    8.05528233526223
C         -23.67608654405115   -1.85243559851884    8.74186533951168
N         -24.97508297429198   -1.48466358777281    9.06391943226093
O         -25.73421041221691   -2.35548323371985    9.46621862503948
O         -25.28306231074387   -0.31494633921618    8.87360058871372
C         -23.10850819358193   -3.10317129691632    8.76850370741281
C         -21.82108006796808   -3.13080531480113    8.21977691286943
C         -21.02591708643478   -4.32787932413809    8.02647990234556
C         -21.51044971789326   -5.52022332387339    7.62881326279181
C         -22.85084696680790   -5.83778949324562    7.23165544591512
C         -23.80209129025567   -5.08605498997491    6.62342879755709
C         -25.23200026453278   -5.52022217045373    6.74816272960568
O         -25.62465900026145   -6.63510556973438    6.98689522735418
C         -26.01096213124918   -4.27698904215872    6.60204865398771
C         -27.32296635390313   -4.04417567380454    6.89868448581442
C         -27.82893027791551   -2.72992978803704    6.78686684925209
C         -26.97043040375722   -1.68059568761936    6.34585312576728
C         -27.46914014675918   -0.36507166299417    6.27461304282737
C         -28.76441555529909   -0.10358764570401    6.62211720111248
C         -29.61629813149487   -1.14254853613544    7.04962006557248
C         -29.16065443934983   -2.42878544777115    7.12959280794463
F         -30.88293057209322   -0.85694241035854    7.37626640335504
F         -29.24208380133349    1.14413751491872    6.55259873959903
C         -25.62358852679910   -1.95553939711536    6.02103442073962
C         -25.14710432703729   -3.23193509593138    6.16535883389754
C         -23.79715951677907   -3.76413979336651    6.03281674464070
C         -22.75883861194797   -3.15677402689577    5.37851644728892
C         -21.47929677232452   -3.71886066086020    5.21772467876233
N         -20.39990846510302   -4.08810183529761    5.08382247247248
C         -22.82373912321317   -1.87422553248377    4.79480408961545
N         -22.77826880720361   -0.82050346282310    4.34167312029897
H           3.03746828710481   -0.04847575395100    4.40560714099080
H           4.50988378432196   -4.73709869784448    5.03998222822411
H           0.72453144086895   -0.77894818356440    4.18314323390276
H           2.14680077975623   -5.51601429756976    4.80838276461090
H          -3.89728888647190   -3.89368191001580    4.02222306728020
H          -2.77337957228109   -6.72816554692111    4.36561975740497
H          -4.70531418525392   -8.49250934772370    4.49112797615388
H          -7.28413185714838   -8.62857386580576    4.51604142258541
H          -9.63342559857271   -8.12114253333445    4.67988076687253
H         -11.94036828927939   -6.96549512150416    4.74754978432898
H         -13.00508821521736   -4.58519591346820    4.62729776779298
H         -10.98041232556955   -2.44277801984301    3.76395740107644
H         -12.06286049075000   -0.11332754827618    3.41708231422166
H         -14.27143747151209    1.14832586559596    3.84379894776082
H         -16.48628910844014    1.78127755718536    4.43089708104732
H         -18.85223912623647    1.93208098494836    5.44328783764275
H         -20.61191588824171    0.42961248658881    6.73993128520842
H         -19.62024257854857   -2.34940206565691    7.01027606909865
H         -23.61762392654680   -3.95514799946621    9.18097992858648
H         -19.96861329126017   -4.24683393840595    8.24383206388724
H         -20.83524383091983   -6.36604262084423    7.64165003506362
H         -23.17882495792671   -6.84182776354283    7.48938409058135
H         -27.95965105995921   -4.84474267023555    7.24205009925385
H         -26.82534706038644    0.44203725769574    5.96289509268231
H         -29.82255028628445   -3.20997189299864    7.46871283751675
H         -24.98866860203588   -1.13900549526906    5.71301677273533
