113
 SCF done       -208.481504843030          0.000858748560
C          -3.95879039874621   -1.83083875073331    9.81477761995564
C          -3.24871935245570   -2.92854415643938   10.21361097652147
F          -2.72159671903401   -2.97868499191452   11.44393823720839
C          -3.06160434308736   -4.01827056125367    9.33975104852898
F          -2.36079895575797   -5.08071201742152    9.75767603798996
C          -3.58679192909737   -3.99483197910217    8.07776038791228
C          -4.32181127768885   -2.87759241334927    7.63706556273886
C          -4.51357632377670   -1.77576363098344    8.52030109339065
C          -5.25239659609556   -0.64533848693084    8.10233960787586
C          -5.78492704154280   -0.61793217795198    6.83984421368817
C          -5.58400409730475   -1.72143287183844    5.96429936004049
C          -4.87348899374361   -2.82509501360893    6.33735508761447
C          -6.24752394864065   -1.44856979669763    4.67957632745618
O          -6.20330786839853   -2.13190246590610    3.67295032095753
C          -6.89878585886146   -0.13572341817547    4.83004941299899
C          -6.59096667472615    0.38449418877019    6.15046439678201
C          -7.01109193420935    1.57180137923685    6.69366344894134
C          -7.83243578162084    2.51908415549279    6.04986898014776
N          -8.49903990108761    3.32950001729255    5.58182752934102
C          -6.67405342485573    2.01132106810124    7.99128245788508
N          -6.43239294808370    2.43330956576422    9.03105534565749
C          -7.55096335139541    0.55605695077407    3.84453184909351
N          -8.00886576702997    0.11101819494772    2.65624336063112
C          -8.39437046439123   -1.13357158906421    2.24022731848242
S          -8.80006762409014   -2.41104372227010    3.32601259983036
C          -9.41201344697148   -3.33250997722643    1.99804483207292
N          -9.90729728813713   -4.61262142467966    2.28429512518539
O         -10.32263788036995   -5.28391732652513    1.36136110002764
O          -9.87875487791014   -4.95338388167860    3.45439744077402
C          -9.31324469439294   -2.69279675028329    0.79058860747592
C          -8.71787849194442   -1.42430383144929    0.90689513070729
C          -8.49717899152341   -0.55745946983816   -0.22151056100508
C          -7.51409771063455    0.36125365738905   -0.31969830137528
C          -7.32096080645517    1.24455849693837   -1.42606158213976
C          -8.19564525737832    1.60621030652855   -2.44135414282963
C          -9.54704134823244    1.22506120144618   -2.45455112150329
N         -10.66279531233695    0.96161788624697   -2.41279175205804
C          -7.61210693381975    2.51937280353359   -3.36373927222845
C          -6.31218353801227    2.85002570057469   -2.99440753657988
S          -5.77404357462784    2.05177363995802   -1.57065021244995
S          -5.52790233248999    4.01587813727334   -4.00837014621367
C          -6.97565470279635    4.06525419608976   -4.96580468712672
C          -7.99395065391688    3.22325513607556   -4.54357150664624
C          -9.11943342004335    3.29708462131909   -5.41677871739566
C         -10.21323243566537    2.42012551062891   -5.34112356877429
N         -11.06679257492022    1.65365357567724   -5.31651611267673
C          -8.94284190968101    4.21227122208208   -6.44034567655540
S          -7.36704761311160    4.97195862888107   -6.37352112437618
C          -9.86980471817215    4.59383321696736   -7.47935009031073
C         -11.25097789137911    4.41821844657359   -7.30302922586087
C         -12.11126657674374    4.79205730659416   -8.30640234184489
C         -11.61894899952685    5.39548567367226   -9.47913496115910
C         -10.25462270758502    5.58109153708523   -9.65672308166696
C          -9.39236055863396    5.17366580769247   -8.66100886440764
C         -12.73939417755667    5.77716203747828  -10.30777753681349
C         -13.92528316894904    5.40880709450608   -9.64938737243500
C         -13.61796561851948    4.69087249801099   -8.35260656168104
C         -14.08417796477027    3.22509771701187   -8.52611446183091
C         -13.82435178286282    2.29394290306408   -7.34992434894333
C         -14.28482634012232    5.36108127334591   -7.14305367130039
C         -13.94387073709458    6.84353940903382   -7.04009483221735
C         -15.14614925208545    5.68139900024857  -10.21192424302526
C         -15.21918639157626    6.34459431147030  -11.45063384110111
C         -14.02237134608565    6.70153180957216  -12.09352632532266
C         -12.79279110878991    6.42355288945703  -11.53618240325402
C         -16.52215003816079    6.61312445209432  -11.99391923069988
C         -16.80522364176445    7.29273798562516  -13.13433083590477
C         -18.08891808487073    7.54441261084771  -13.67207882897949
C         -19.32358787981416    7.13934953083866  -13.23692613586186
C         -20.54681542695799    7.46171827950744  -13.89008045146821
C         -21.65946366908610    6.94646584296864  -13.30899140588673
C         -21.39690088838371    6.17645953134142  -12.14820389822570
S         -19.67203722649515    6.14485024514786  -11.83103565928586
C         -22.29635973816138    5.52244767236012  -11.34279604897078
C         -23.71130337122230    5.46862450279936  -11.49162707932368
C         -24.34405668889147    4.74041897194122  -10.54626635075097
C         -23.47415864908120    4.15573363241205   -9.56559574411625
S         -21.80075434478208    4.60160323900415   -9.93560266257982
C         -23.81362631050466    3.38907182857672   -8.52077675406069
H          -4.09391642954489   -1.00591200234543   10.49679538143998
H          -3.43573334787878   -4.83735264967267    7.42124122653850
H          -5.37856453161839    0.17063278423057    8.79511363202203
H          -4.74025278453878   -3.64910380651271    5.65318167211097
H          -7.71476587699291    1.61692102117403    3.98615089139916
H          -8.22191000514288    0.83136797441291    1.97075838296108
H          -9.63792159604951   -3.13161452330135   -0.13529009023228
H          -9.17017441516305   -0.70894284353715   -1.05271440284730
H          -6.74399475741683    0.41803057556843    0.43956827370790
H         -11.62501595282400    4.02516450093819   -6.37210032441219
H          -9.87209538673962    6.04126973748671  -10.55506189822741
H          -8.32646575725996    5.30280182200494   -8.78809442668775
H         -13.58843658393030    2.82235771580056   -9.41371363576131
H         -15.15716318689430    3.24554491640903   -8.73094778473343
H         -12.76317759284380    2.19252580107332   -7.14285749580880
H         -14.21194080742084    1.30576720933542   -7.58720363767851
H         -14.32408547296728    2.63982308769472   -6.44964355271130
H         -13.95935201945076    4.85664975835258   -6.23281780282976
H         -15.36664308110121    5.24136490517697   -7.22736224475233
H         -12.86864483046424    6.98421928986581   -6.94862004610814
H         -14.42298185421314    7.27829810156309   -6.16581611762476
H         -14.28488212098141    7.38077563164173   -7.92243350015949
H         -16.06244973167920    5.40200914956251   -9.71174027774414
H         -14.06104296378599    7.20210181916943  -13.04846862215095
H         -11.88480966791665    6.70584965284672  -12.04849034607985
H         -17.34109486902594    6.22783088277596  -11.40343204764740
H         -15.98944545272610    7.70398648917241  -13.71360867001961
H         -18.10741076828325    8.14277786601680  -14.57547713784153
H         -20.55427854392929    8.06918013293893  -14.77844525233988
H         -22.65851877773306    7.09343274041963  -13.67831525064852
H         -24.20756089313832    5.97507571223084  -12.30052389061321
H         -25.40736088236246    4.58616688959406  -10.49629338185722
H         -24.84360387036454    3.14171863682096   -8.33341227317023
H         -23.07749251783221    2.99901022828301   -7.84218889624409
