88
 SCF done       -184.068888146263          0.000795442620
C           3.86479515375255   -5.63520961078309    1.57319198951554
C           3.37648899854265   -6.16703127592698    2.73381274549984
F           4.21437110818798   -6.52709098001106    3.71421528697244
C           1.98967403107688   -6.34179055047301    2.91527865475729
F           1.53918453292246   -6.86309871483566    4.06391330154033
C           1.10996909201430   -5.98182943447758    1.93299069522025
C           1.58232347787372   -5.42948137194111    0.72672311881414
C           2.98421658270579   -5.25321184223819    0.54119862013326
C           3.48154536247029   -4.70095972448031   -0.66181754833575
C           2.60394773686692   -4.33661323564360   -1.64871656784317
C           1.20620890766945   -4.51485521916248   -1.45281405332992
C           0.69552745007578   -5.04293849744807   -0.30256259443328
C           0.48143174719904   -4.03765852876435   -2.64231466504536
O          -0.72498295598582   -3.94503625412317   -2.77095434896559
C           1.51911048418540   -3.58164783735389   -3.58849922703395
C           2.81893460910238   -3.75520378245730   -2.97141907118006
C           4.03963284325560   -3.48585839239784   -3.53195552527577
C           4.23301015593871   -2.97165217624588   -4.83063196495697
N           4.44970434266550   -2.55629627754570   -5.87921294031040
C           5.27319350100494   -3.69346649206801   -2.87947654444715
N           6.30699693101442   -3.82991069306562   -2.39998020732782
C           1.26068027173676   -2.93550819476288   -4.76762789411778
N           0.07941927006478   -2.92679090026119   -5.41775884702210
C          -0.90082501189611   -3.89434830453436   -5.34840088663318
S          -0.46833206634978   -5.57206400962393   -5.28806074405766
C          -2.14604855675346   -5.98209686825036   -5.35970977703275
N          -2.48829737863375   -7.34217902180672   -5.30414984220910
O          -3.66685946769494   -7.63149751569748   -5.36512956188548
O          -1.56855210174525   -8.13318104076256   -5.19722840566392
C          -2.97650633546127   -4.89847130648813   -5.43743411165709
C          -2.27368261882145   -3.67598892970104   -5.43792340177216
C          -2.85273410153787   -2.35517081957612   -5.40955102094138
C          -4.16625444328889   -2.10635873093245   -5.27726125201891
C          -4.80002816651930   -0.81789321954891   -5.14026884840448
C          -4.30592977451273    0.29576333885272   -4.58414118053780
C          -2.94172610934201    0.42610177770183   -3.98221658675597
C          -5.13438666388867    1.56070106933387   -4.47714476930873
N          -6.52325189891200    1.44888413010130   -4.83099945342225
C          -7.00848735418076    1.48584496545213   -6.09532392178151
C          -6.27665308275199    1.66369155054346   -7.21881895345089
C          -6.80347251573949    1.78323472903618   -8.53784761292579
S          -5.74275755032107    1.41708358052301   -9.86616171031594
C          -6.98370679069565    1.75881872198147  -11.03915742116371
C          -8.15422318960079    2.14099371978271  -10.41445265852900
C          -8.04776941500091    2.17191338286376   -9.00507996759417
C          -9.17628196440940    2.62852027667163   -8.13438731298700
F          -9.81430781535205    1.55016346051032   -7.54519953060680
C         -10.17850634752381    3.42882840175715   -8.96848649091315
F         -11.26078375881273    3.78638009240008   -8.20707041899314
C         -10.60972562626843    2.66203607320973  -10.21804653849855
F         -11.07614868816725    1.41048399056895   -9.92158451983192
C          -9.40071289440527    2.52526838857372  -11.14986222116438
F          -9.22203584224245    3.75261555097845  -11.77547893271269
C          -6.65836806173882    1.61494602221837  -12.41655350258184
S          -7.71677579546967    1.95661579661817  -13.76743434217526
C          -6.55567028128933    1.52326630446188  -14.95378912445535
C          -5.38235520234590    1.13036516764253  -14.35910996562676
C          -5.45502279288039    1.18872349136582  -12.93204841198466
O          -4.29078175384433    0.79683848287483  -12.37053996497556
C          -3.47873971986212    0.49211496562020  -13.41983910787949
N          -2.16989264777335    0.04063557977926  -13.12247647039179
O          -1.45338550931026   -0.20722764543076  -14.07352596134984
O          -1.85728104010095   -0.06922779576769  -11.95629195171174
C          -4.06645649144599    0.66819787590879  -14.64262430448321
H           4.92924699607332   -5.50970441606583    1.45033946988697
H           0.05156270380770   -6.12267306250485    2.08694746290573
H           4.54697280338013   -4.57764223990352   -0.76891143441499
H          -0.36983625026190   -5.16668302331985   -0.18100459518254
H           2.03412562972102   -2.34024758930646   -5.23550356541549
H          -0.06112529546414   -2.20316543725785   -6.11251117947310
H          -4.04462648739481   -5.00154410133236   -5.48417423692598
H          -2.15477354162637   -1.53639267632387   -5.48172701510399
H          -4.85604371027172   -2.93957107351915   -5.27546489249531
H          -5.82604525906418   -0.79872201142092   -5.48616709135255
H          -2.21971283831393    0.74695593559632   -4.73363940440616
H          -2.61012202154964   -0.52297521446080   -3.56669835583763
H          -2.94426678208023    1.17425078172806   -3.19167298137543
H          -4.67744146510018    2.33223963664402   -5.10781445570086
H          -5.08669164787347    1.92028959541223   -3.44328834984146
H          -7.13125477746071    1.07573782008909   -4.12042223857911
H          -8.07769143137544    1.35876739544365   -6.14777681986658
H          -5.19842143786242    1.64989290207038   -7.16420452660243
H          -8.81287615031302    3.24195721979442   -7.29760926672785
H          -9.70443907043372    4.36442199222194   -9.29635276370890
H         -11.42360659671324    3.19501961509265  -10.72556866785004
H          -9.63358735596516    1.80755931086598  -11.94780057122759
H          -6.80689114928488    1.58051481642353  -15.99219543705875
H          -3.60991167077924    0.48902813124685  -15.59389033448561
