102
 SCF done       -208.095564467721          0.000821256961
C          -4.76521660527259  -11.30095421850585   -6.52403341032092
C          -4.71493089049675  -11.16278962995220   -7.88341238697004
F          -4.52247534902014  -12.23407130656924   -8.66197897557847
C          -4.86472447859496   -9.89559009607644   -8.48198438500327
F          -4.81158544758386   -9.78917206394317   -9.81573094186139
C          -5.06274546728191   -8.78347891507946   -7.71226252432684
C          -5.11988446923392   -8.89410145876271   -6.30955345121836
C          -4.96871063197171  -10.17455308908715   -5.70257762511549
C          -5.02554620146326  -10.31008705741202   -4.29527984722851
C          -5.22983159118999   -9.20071461068275   -3.51962791243452
C          -5.38095151798880   -7.92473882083550   -4.13666818569522
C          -5.32782110968050   -7.76202469953795   -5.49143346609554
C          -5.60163252584162   -6.91826122419787   -3.09441951709011
O          -5.77363865192198   -5.71086998093858   -3.24750529681152
C          -5.58845539024763   -7.63689468039810   -1.81699386767566
C          -5.34179558716003   -9.03833203890404   -2.06965088155619
C          -5.22514363465150  -10.03733669588151   -1.13994545993246
C          -5.32587095535317   -9.83113433704171    0.25142984810875
N          -5.39878647361362   -9.69913835366599    1.38926059143144
C          -4.98121836153551  -11.38951247948224   -1.45728260882945
N          -4.78679937776286  -12.50227988728230   -1.65984588907433
C          -5.82162025339020   -6.98330114650625   -0.62903034104977
N          -6.04666136257802   -5.66604688490451   -0.64182587851008
C          -6.35790013254278   -4.85025080503660    0.39433192145741
S          -6.50683729545397   -5.41730843574998    2.02478955434996
C          -6.96023991136872   -3.81544986801825    2.51112445250175
N          -7.22135651980422   -3.60738038877836    3.87646612382246
O          -7.52827528607023   -2.48706003020434    4.22801590233706
O          -7.11329356223987   -4.57899155800973    4.60148802591429
C          -7.00071312563901   -2.91116893066793    1.48522045782312
C          -6.64556693279020   -3.48573334269840    0.24899467082847
C          -6.56183413115911   -2.80433596369654   -1.01329452208391
C          -7.15842463292296   -1.63486238021510   -1.31486503848132
C          -7.04716341940880   -1.02341356567121   -2.59766009851539
C          -7.80981878525110    0.03287203333914   -3.07668238703710
C          -8.79714155862092    0.63445090700113   -2.27729267242408
N          -9.58452242009614    1.08468888259049   -1.57645719748579
C          -7.48684898070195    0.37606299051257   -4.41643790125781
C          -6.46107433428307   -0.42687901736674   -4.90543065982259
S          -5.89842799454421   -1.60186417984700   -3.78555944883753
S          -5.99167516487031   -0.10813460943568   -6.54449214079933
C          -7.21837095180199    1.11588850943621   -6.60026908306637
C          -7.93681653010874    1.28308596424663   -5.42008486905934
C          -8.94171819852042    2.27524823953230   -5.56906046896172
C          -9.70990811197613    2.80453529811464   -4.51713586021448
N         -10.24945859458850    3.31164035440900   -3.64046302116002
C          -8.96971021459965    2.80260845841520   -6.85192710154535
S          -7.71533148230210    2.15628321093816   -7.87737472325805
C          -9.91988537825094    3.72770538593527   -7.38749970719701
C         -11.25279240174127    3.76193788273272   -6.93805769926455
C         -12.19986601336616    4.72979453875554   -7.43612924110841
N         -13.38789245264858    4.83834400886519   -6.81727743819322
C         -13.72068128712990    3.98534427543776   -5.88668303415474
C         -12.87387715796208    2.85710908735598   -5.59733829699589
N         -11.67113479465531    2.80018174071672   -6.09851048730217
C         -13.34751022088805    1.78170890880678   -4.80563549419135
N         -13.76999971493226    0.91553460470667   -4.18708975261543
C         -14.94988213655967    4.15062004108751   -5.20162714034603
N         -15.95041649638241    4.24591527217967   -4.65238681012178
C         -11.89627730461885    5.59485733014437   -8.51064277538205
C         -10.57688313190124    5.51223453793371   -8.99870438182021
C          -9.60669249065646    4.59424924164102   -8.44544343163052
N          -8.42753920276212    4.67158953980841   -9.06730573088790
S          -8.52895029228932    5.76911386419321  -10.23205677481384
N         -10.04994493424546    6.20856141177803  -10.01385779121102
C         -12.87640922338268    6.49098934440247   -9.09264042648965
C         -12.47270267939863    7.72058643450815   -9.63744538943488
C         -13.40662012152354    8.53967322164457  -10.21774313406640
C         -14.75987821729472    8.16173529469643  -10.27416911378491
C         -15.16907158043515    6.94852896788333   -9.73899696302610
C         -14.22898797450622    6.12516045342036   -9.15572510189115
C         -15.50280113131418    9.20492943551963  -10.95152607663946
C         -14.60812056594820   10.22551437391467  -11.31240073987324
C         -13.20247061321032    9.88964224318182  -10.86752848805840
C         -12.68148917917492   10.91617428553628   -9.85701575770631
C         -12.25111735200036    9.78207822613341  -12.06344721998927
C         -15.06074198858443   11.34081084711583  -11.98336969071923
C         -16.41169780130103   11.43385841322680  -12.29179210731718
C         -17.29586914760758   10.42637299529837  -11.93388536736578
C         -16.85138197842796    9.30173250302390  -11.26016935590904
H          -4.64890294334263  -12.27858472129761   -6.08298870685126
H          -5.17618033781190   -7.82061572754104   -8.18530194595453
H          -4.90886335224210  -11.29283855111055   -3.86812536894705
H          -5.44628717532178   -6.78393321090970   -5.93235278921604
H          -5.84422870228770   -7.49005003675038    0.32715087591180
H          -6.02040488907095   -5.25856287020784   -1.59801852755215
H          -7.25726589729085   -1.87838832113028    1.63445287735834
H          -5.98082997813060   -3.28800695830222   -1.78901557628191
H          -7.79531186663317   -1.12618704517965   -0.60454312575676
H         -11.43673898549455    8.01308161419658   -9.57964019676083
H         -16.20332122755921    6.64380268840992   -9.78761521162709
H         -14.53473710258226    5.16652043944272   -8.76880287995565
H         -13.35729905836555   10.98493855494321   -9.00729269709906
H         -12.60620573945823   11.89662605473598  -10.32096398673784
H         -11.69793361269914   10.62457865054321   -9.49674991912443
H         -12.63128785125131    9.05936054300538  -12.78224912308358
H         -11.26729901077092    9.45778951021532  -11.73338202295660
H         -12.15514237258119   10.74602415327453  -12.55717766079738
H         -14.38351724431880   12.13279228003605  -12.26761732562180
H         -16.77950176027220   12.30270311381920  -12.81740500368729
H         -18.34189185364592   10.52196798313002  -12.18492696570604
H         -17.53907946824014    8.51748504766944  -10.98180530227321
