95
 SCF done       -203.549686208765          0.000306768432
C          -3.61902349666610   -0.12340834711287   11.01884870611091
C          -2.65407170606117   -0.10404118954671   11.98555418544593
F          -2.62169116991358    0.88702883015901   12.88904530497939
C          -1.69119866334012   -1.12883675676883   12.06055281151679
F          -0.78219934742674   -1.10324836767664   13.04707621927708
C          -1.68581265669108   -2.14402954504750   11.14682661096195
C          -2.66072292342894   -2.18594109547973   10.13101658196370
C          -3.65956966376400   -1.17170067271717   10.07804276729748
C          -4.68104883034352   -1.22569888803780    9.10334271489084
C          -4.69585573209851   -2.25725736227438    8.20268769580227
C          -3.67249134396430   -3.24223537008174    8.23654139882455
C          -2.67394819974244   -3.21727201602483    9.16734297843574
C          -3.90126471912987   -4.22725450374448    7.15983019148019
O          -3.19042466435606   -5.19281946155638    6.93592001299800
C          -5.15863189186470   -3.82839078427672    6.50782472123124
C          -5.60890227317276   -2.58394675203588    7.11199356426684
C          -6.64590834802079   -1.79200311687612    6.69707525440071
C          -7.46605647790193   -2.02385623469337    5.57121258964681
N          -8.15131254768582   -2.11182066286122    4.65404647522572
C          -7.00198136075590   -0.57404515693622    7.31609713804677
N          -7.33693673131596    0.42825250890804    7.76340948163413
C          -5.89848960360296   -4.53041990512898    5.58736034168341
C          -5.58966196371333   -5.66740048482715    4.82465079199727
S          -6.88847337041447   -6.38506388317775    3.89905900499686
C          -5.84041811128724   -7.58557539394930    3.24659525280534
C          -4.53878911818611   -7.41104741759100    3.71268029447113
C          -4.40077262131284   -6.35203315343331    4.59033949250003
C          -6.36863400002289   -8.64179214608026    2.45107765156787
C          -5.62330311894721   -9.66982583321860    1.99526837075826
N          -6.13612482674367  -10.77139164749324    1.36870102023686
C          -5.48175099657395  -11.95344842891426    1.18407997577444
S          -5.99461316315473  -12.97234892837995   -0.12834402842289
C          -4.69130850771778  -14.06473062077477    0.21519836393086
N          -4.58015616879067  -15.21807836636819   -0.57126650181319
O          -3.66177218131876  -15.97813784155186   -0.33221620627831
O          -5.42036752628739  -15.36709509141730   -1.44126014752759
C          -3.91494221420886  -13.66082992617546    1.26625414574919
C          -4.36811972848216  -12.46807824740043    1.86245853444380
C          -3.75727521493082  -11.93862104840836    3.06293495382697
C          -4.43378485847553  -11.29408064508107    4.03137222948007
C          -3.85474801373350  -10.60369527229608    5.13448589613720
C          -4.54395039074513   -9.70720671372396    5.94192601059116
C          -5.92445235366646   -9.51108985470943    5.79007222956837
N          -7.05201232338827   -9.39961794174398    5.61155239398352
C          -3.69788844904437   -9.04988132855328    6.87190282734530
C          -2.38602241536375   -9.49418991319501    6.75984228701204
S          -2.15276861783393  -10.66991427171393    5.52426160069720
S          -1.26882779642711   -8.77032412040796    7.87524857701944
C          -2.58050602698432   -7.83923488899485    8.50375151940998
C          -3.81204420148236   -8.05708167567452    7.88526781839202
C          -4.80538782568924   -7.20235736396339    8.41037811133871
C          -6.10564042843004   -7.05756394455198    7.90303606794594
N          -7.14540964028192   -6.86148338873958    7.46151435594439
C          -4.33692173705640   -6.40944284980074    9.45594445643718
S          -2.63118545256623   -6.66352388358508    9.74613850382530
C          -5.09759961560990   -5.41187344833324   10.11200105061737
C          -4.86506491951155   -4.76920750045817   11.28565555682133
C          -5.54262210004413   -3.46718433114911   11.54706125539843
O          -6.41343276929507   -2.96603139116459   10.87401950154813
C          -4.85407324793115   -2.89853023117682   12.71838997531763
C          -5.06245411641915   -1.70002902779486   13.33927649861904
C          -4.24082455998653   -1.33675174607119   14.42956709523101
C          -3.19959003410741   -2.21847533731091   14.84500746121090
C          -2.35285952839302   -1.82967780013963   15.90137728827463
C          -2.53724477293938   -0.62637518400255   16.52306930097646
C          -3.57723281745293    0.23786431912626   16.12258389104278
C          -4.41309663763945   -0.10955295687280   15.09833885233365
F          -3.74141350469393    1.40162281934136   16.75884654537001
F          -1.73531025330840   -0.25978013039116   17.52758408351996
C          -3.02924440285125   -3.46803834400619   14.20637648100805
C          -3.85549004837173   -3.80993838004171   13.16964498433878
C          -3.97535150400175   -5.04139834345356   12.39588298989393
C          -3.58173416792756   -6.28046454332669   12.82632492103136
C          -4.01771507135973   -7.48174666133208   12.22909814754066
N          -4.39298164465649   -8.47598870510422   11.79553041571184
C          -2.78881956399441   -6.49429793665290   13.97305735114627
N          -2.12740525348527   -6.71475426390205   14.88396449800911
H          -4.35371618931014    0.66517766312110   10.97843361075896
H          -0.93334228980060   -2.91480217187807   11.20842484335087
H          -5.43712184914697   -0.45875788193316    9.10661854396819
H          -1.90229633999889   -3.97236829568446    9.17212100722156
H          -6.90349974674492   -4.16443650907054    5.41474561561756
H          -3.71910266530625   -8.03982111456418    3.41403670247202
H          -3.47406502909685   -6.07166966132109    5.05563509190915
H          -7.43694630808141   -8.63439637981121    2.28873812557064
H          -4.55405727279522   -9.68537470959786    2.12683656716948
H          -7.08740913926655  -10.71325068734739    1.02672983965838
H          -3.07357104532465  -14.23075802170791    1.61753048387175
H          -2.69338601507660  -12.10807017345664    3.16855026811868
H          -5.50949734279351  -11.19588317373891    3.96791069553869
H          -5.96601249558439   -5.06025391402788    9.55918662782344
H          -5.84654257462033   -1.03863925321111   13.00352448598350
H          -1.55341455096252   -2.47910609027320   16.22133654256324
H          -5.19701209817493    0.56714612443480   14.79704067189800
H          -2.24172079703351   -4.12114525907392   14.54746853209133
