94
 SCF done       -171.306887552449          0.000518824610
C           0.41773343931176  -10.01185402071367  -10.26943244910162
C          -0.02070008974557   -9.82302374972414  -11.55104380118372
F           0.46656911694614  -10.57554589507074  -12.54680338198947
C          -0.98604681889927   -8.83971331778703  -11.84013611490660
F          -1.39974013289753   -8.67536053518623  -13.10482454500541
C          -1.49972717555501   -8.05627327023676  -10.84375736292515
C          -1.06752523413312   -8.22623922460456   -9.51507405902943
C          -0.09250099301330   -9.22226215402413   -9.22074048826110
C           0.35338933840501   -9.41469037101788   -7.89168799605035
C          -0.15932162112082   -8.63558309241080   -6.88976020169517
C          -1.13164370181076   -7.63825502872335   -7.19398324586360
C          -1.58122320333070   -7.43010699657080   -8.46606700565198
C          -1.50872218231480   -6.95483824845441   -5.95142837586958
O          -2.31326628460679   -6.03126604493859   -5.82183267577193
C          -0.73498999492180   -7.58576011595123   -4.88366037492461
C           0.10305243860694   -8.61290932720743   -5.45214407277451
C           0.98916748693939   -9.42348645992899   -4.78663110681794
C           1.78099912897361  -10.40874303005107   -5.40806578102758
N           2.45042408663279  -11.22572694920439   -5.85922799690202
C           1.21982657992018   -9.36765263490195   -3.39817958809199
N           1.43826118827954   -9.35159241814588   -2.27082769502195
C          -0.86282406698528   -7.18919608957521   -3.57026302894757
N          -1.70954590244407   -6.20222353513453   -3.25818458322080
C          -1.96351024742670   -5.67775921216410   -2.03588990103101
S          -1.16933844638446   -6.26013719204879   -0.60505265059123
C          -2.04217009796592   -5.08343604295485    0.32387750223878
N          -1.81559104080965   -5.03630601621753    1.70215894974480
O          -2.42941953062601   -4.20327099408006    2.34759359940442
O          -1.01538797814364   -5.83686544104401    2.15768997983805
C          -2.88408199015190   -4.30235719464315   -0.42376954305061
C          -2.86000146684850   -4.62635675511381   -1.79213951185619
C          -3.61835933507583   -3.98366167044588   -2.83576309631654
C          -4.47099380170156   -2.96213728351720   -2.64389249500250
C          -5.22581530721820   -2.26760867086343   -3.65723400053143
C          -4.92014412539066   -2.08088935321713   -4.94903670527088
C          -3.68016234287058   -2.57717988283321   -5.62205994303261
C          -5.82223222299802   -1.27237844028059   -5.85969318716747
N          -6.90835784019032   -0.60282053437356   -5.19799410255481
C          -8.20918390873786   -0.96794321482357   -5.20976780130598
C          -8.80055844015149   -1.90187514688242   -6.00291187865906
C         -10.18308962107042   -2.15487458330341   -5.95709928983889
C         -10.85145026040413   -3.00765875428426   -6.79673988420218
C         -12.23692717909406   -3.29310448933946   -6.79981012952406
C         -12.63316405225529   -4.14782447210842   -7.78381889287836
C         -11.58425830828705   -4.58592791505112   -8.62178245796565
S         -10.06561474223768   -3.89496648171905   -8.10197102938942
C         -11.67844666928010   -5.41440018652331   -9.72629800928873
C         -12.83987142338592   -6.01989348973307  -10.25316402484129
C         -12.62569182917290   -6.75827686082438  -11.37877791830592
C         -11.28277454862605   -6.77886000503428  -11.80773333302350
S         -10.29010890319051   -5.82702270942026  -10.70838438026007
C         -10.69548083715906   -7.37606555229930  -12.89825235231465
C         -11.25147108011847   -8.16308897665287  -13.91783620613880
C         -12.52290058395466   -8.70079910988005  -14.20261437368866
C         -12.53432980131323   -9.45944136491219  -15.42976471213270
N         -13.66329064155175  -10.05779754727910  -15.88016414867865
C         -14.71700203336432   -9.91703123963871  -15.13384639161831
C         -14.72301131819643   -9.18653467574838  -13.91149161737130
C         -16.00060371901807   -9.11906582481261  -13.12684007267536
C         -15.91653545538385   -8.29337548292462  -11.85165758015376
N         -13.64300035278437   -8.58833814554733  -13.46618505574853
C         -11.31328560112789   -9.50392227550274  -16.06154890976378
S         -10.13654086119830   -8.63754912186051  -15.18423399373545
H           1.15727875968187  -10.77012442525296  -10.06479601037566
H          -2.23925314981555   -7.30807172079629  -11.08257867371241
H           1.09057565771473  -10.17754657447512   -7.70130077379083
H          -2.32003571948838   -6.67057953571557   -8.67222098349137
H          -0.30330264805256   -7.64475446070568   -2.76444869675624
H          -2.20900150302061   -5.81734960886013   -4.08103710219181
H          -3.48526417369466   -3.53298078782108    0.02348421832999
H          -3.50255642583782   -4.38727377481848   -3.82821803629233
H          -4.65305319602874   -2.61242726267804   -1.63634180361693
H          -6.13409674452131   -1.81232843598421   -3.28101562710637
H          -2.83438624675846   -2.55175248228620   -4.93800581339234
H          -3.44667348027811   -1.96642245353648   -6.49172420157416
H          -3.80523648462181   -3.60388044222330   -5.96532495916748
H          -6.22595132196066   -1.93253819008456   -6.63056752902028
H          -5.20958954803307   -0.51533026860296   -6.36718874490468
H          -6.63092808661592    0.09609749725472   -4.52712910077524
H          -8.83233673074501   -0.39870861410009   -4.53144076259389
H          -8.22608907865057   -2.47577529508138   -6.71464389736670
H         -10.77348505491005   -1.63076302703413   -5.21642325231868
H         -12.89883840476456   -2.85232267130922   -6.07498261156067
H         -13.64869066574680   -4.46701374155246   -7.93406816219633
H         -13.80302412983865   -5.89365328987025   -9.79144686434508
H         -13.37045693309530   -7.29769897049329  -11.93381886011715
H          -9.63107536753218   -7.20440572596195  -13.00894555374750
H         -15.62380194224749  -10.39282479653269  -15.48519297636283
H         -16.29537490220167  -10.14490617463807  -12.88260300757661
H         -16.77871511619187   -8.71309615323745  -13.78108490920726
H         -15.14592907613680   -8.68791714707445  -11.19474073587751
H         -16.86952920003635   -8.32276575313068  -11.32822758773089
H         -15.68136031850659   -7.25807195847169  -12.08437949356974
H         -11.06693622716028   -9.99795893580696  -16.97856200740084
