87
 SCF done       -185.987725858697          0.000676535102
C           0.87225988361968    1.46226283805766    3.46750280488975
C           2.23173271525951    1.49532492996039    3.60432132937154
F           2.86902652111426    2.66964826187602    3.72222040333766
C           2.97925218069687    0.30194550125430    3.62270561468574
F           4.31300384543186    0.36358531216199    3.75598944267303
C           2.35681043264576   -0.90941134721052    3.50617777065631
C           0.95755874051103   -0.97648589988062    3.36456636338934
C           0.20066119959962    0.22983950764894    3.34286609532776
C          -1.20553990437820    0.18767045302033    3.19471701129911
C          -1.83359790150040   -1.02262784225275    3.07213764111039
C          -1.07009940176997   -2.22248919888763    3.10114320770561
C           0.28656085207529   -2.21453936388622    3.24209088567417
C          -1.97811094010273   -3.38034301310155    2.95226269661015
O          -1.65246243083331   -4.55190787907739    2.94033960712243
C          -3.33179293598145   -2.80902866308874    2.81969876007388
C          -3.24356977798742   -1.37403081315067    2.89699948685761
C          -4.27660771591520   -0.46793908504132    2.81931405698600
C          -5.63873810902532   -0.78228276925724    2.64444459681538
N          -6.76716329516885   -0.94703055744575    2.49986693801326
C          -4.10883839358358    0.92822505231297    2.90586361322387
N          -4.04281763663613    2.07371245648122    2.96408236720248
C          -4.48062971726629   -3.55241250214243    2.63087569310086
C          -4.53729129062298   -4.93965067286428    2.55262481105644
C          -5.71262291373930   -5.62571385451467    2.31099268891417
C          -5.86654823155364   -7.02597815132201    2.18699684721066
C          -7.13880574685769   -7.42558506712203    1.90070927393614
C          -8.05460863369587   -6.35721463217564    1.78848670506661
S          -7.25074281960585   -4.82897451447031    2.07633523714242
C          -9.39778014191089   -6.41359218710482    1.46476897722869
C         -10.17020801943323   -7.54566943383901    1.11332914630848
C         -11.45585989885147   -7.26035662974761    0.77613232940785
C         -11.78032774143913   -5.88151738148613    0.86186961529869
S         -10.37065431420587   -4.96728361453591    1.39823492291789
C         -12.97720080217415   -5.29252735590958    0.57828409659370
N         -13.18680189928983   -3.95832330617477    0.72924447688832
C         -14.32477352759584   -3.24087711406896    0.53396179895277
S         -14.11411956058124   -1.55808359082245    0.12680309376793
C         -15.82813636618494   -1.39610657595359   -0.08005357322211
N         -16.33237530826587   -0.13972632851051   -0.43590872942046
O         -17.53616437073291   -0.03457215206479   -0.58010998716037
O         -15.51677411685010    0.75541226672911   -0.57666813050630
C         -16.50654860045713   -2.56001631956544    0.15042522198058
C         -15.67337161606519   -3.63077472227519    0.53759686579011
C         -16.26950296180507   -4.87341768118713    0.95339982930747
C         -15.74855292805128   -5.80289981958725    1.77733693024791
C         -16.42420000945071   -7.00508303190341    2.14033915235850
C         -15.83140297291336   -8.11344519381531    2.73209527835839
C         -14.45156432564698   -8.12181541951871    2.98627630616858
N         -13.31508249475334   -8.05283252402002    3.12969967905000
C         -16.75344971242176   -9.17195077931407    2.95564107359543
C         -18.03004448787208   -8.81924605670853    2.53154356152932
S         -18.13123153191507   -7.24285336317639    1.84920805634257
S         -19.24857529592816  -10.03069345616722    2.76452541999501
C         -18.02244430207057  -11.05017508802148    3.44334160236731
C         -16.74826693303454  -10.49437092569968    3.48732844726246
C         -15.80706713264854  -11.40551805777692    4.04028608385760
C         -14.43248102984761  -11.15964853941738    4.18953261213547
N         -13.30821018869670  -10.96129830880019    4.29389297201687
C         -16.40005524272426  -12.60682008928248    4.40065980190398
S         -18.11064343105458  -12.65175179154437    4.06940927679506
C         -15.75819259815949  -13.73740663807732    4.98395768034838
O         -14.43616240624499  -13.71191711352080    5.25399772758347
C         -14.07000062727897  -14.89157010006644    5.80066013116273
C         -15.18763414102207  -15.70330811008821    5.88607132960853
C         -16.26631537133390  -14.96787000511775    5.36505662427210
F         -17.53464721578807  -15.35911477445618    5.25065395508024
F         -15.23775345245381  -16.94343150437700    6.36747603236819
C         -12.69253933899529  -15.07909637593198    6.16841538774995
C         -12.20275156560715  -16.18767772408412    6.71834932646789
H           0.31438157193068    2.38561911040525    3.45459216740234
H           2.94374529264331   -1.81442930903215    3.52235866536074
H          -1.74750432814369    1.11915458584626    3.18008786812693
H           0.84188311108905   -3.14008289161013    3.25848738291364
H          -5.41941199140325   -3.02268545730264    2.52351557248578
H          -3.62795913184571   -5.51128837193396    2.66917772459592
H          -5.03002381073715   -7.69110058116842    2.30690861270234
H          -7.43830308460746   -8.44984448447947    1.77068183150248
H          -9.75297330574812   -8.53565436024241    1.11438398501041
H         -12.18716581822941   -7.99173705933258    0.48576513918474
H         -13.79755613752996   -5.88366400244174    0.20545720101932
H         -12.35285943448074   -3.41064492500731    0.92073220713382
H         -17.57731364752055   -2.62581713352892    0.07656495962271
H         -17.28175417389694   -5.01944403767245    0.59600042534585
H         -14.76276614946193   -5.69161626332977    2.20699226566621
H         -12.06702057082459  -14.22318764837276    5.95798454924272
H         -12.81984026678482  -17.04313582035710    6.93101707717783
H         -11.16076871739936  -16.26561291947969    6.97135601341612
