102
 SCF done       -211.731136053051          0.000898501857
C           1.75061006434596   -8.87754141002971    7.22200112183447
C           2.21896062698817  -10.10400998049183    7.60072573048758
F           3.26979248676390  -10.19815163884046    8.42502826437981
C           1.60585686973823  -11.28358204529180    7.13019774060036
F           2.08823354012581  -12.47092314407018    7.51784292865018
C           0.53285421158150  -11.21963858471791    6.28617842284028
C           0.02813849360934   -9.97034941591729    5.87512884936177
C           0.64530946506036   -8.77694484273956    6.35231988205016
C           0.15432276785507   -7.51290685296223    5.95623419289966
C          -0.92157226986774   -7.44363986691357    5.10827112965851
C          -1.52389664472699   -8.63922304839656    4.62844786004892
C          -1.07183491053467   -9.87459989793607    4.99463623037677
C          -2.63523912519698   -8.31285270817954    3.70872574223685
O          -3.30910740152944   -9.10022051222691    3.09646076801344
C          -2.64895620985516   -6.81566031708102    3.63367483480830
C          -1.63412767538752   -6.30365161549845    4.54428515916005
C          -1.43457006899553   -4.99241257943307    4.88059157904473
C          -2.18284567763442   -3.90016310745272    4.38857565628927
N          -2.75303093482492   -2.96308752530084    4.05132082204568
C          -0.45625682282735   -4.55342162055859    5.79968265935557
N           0.32532595143778   -4.13548803460085    6.52813480672044
C          -3.35086527631940   -6.07744028545044    2.73995127353023
C          -4.41409044865382   -6.53990403974042    1.90956257501732
O          -4.71046166533688   -5.78558290313257    0.79908237578480
C          -5.75401204464240   -6.41287673641832    0.22612125403104
C          -6.07703300365878   -7.53914000514956    1.04709280307615
N          -5.19910989222698   -7.55632879597007    2.08590321966232
C          -7.11534588457624   -8.40576521367323    0.73821531669751
C          -7.79273597278946   -8.10014077192359   -0.42954777830782
C          -7.44334876213521   -6.97318841874710   -1.23895940862585
C          -6.42208086363685   -6.09322790315112   -0.94008418734165
O          -8.27242111306260   -6.96858756069413   -2.30050368458661
C          -9.07927192579031   -8.05925168495672   -2.12352020185640
N          -8.83284276830012   -8.73876464822822   -1.04269493215055
C         -10.05910429809863   -8.36227112287507   -3.11523245961727
C         -10.87188846081263   -9.43464083061844   -2.99437656950794
C         -11.82144938157716   -9.80800605460775   -3.98140491322392
O         -12.58671982955554  -10.91389996983560   -3.78093124713907
C         -12.14660372040449   -9.27554459039553   -5.21616277686125
C         -11.85089388629957   -8.19437966525053   -6.16387564544267
O         -11.07601308526826   -7.27520926039843   -6.09450654933014
N         -12.69794240338355   -8.45508502041069   -7.23410748406744
C         -13.51022010306607   -9.58357697570594   -7.09389097046178
O         -14.30192078019296   -9.97124454107105   -7.91247301263092
C         -13.14319295194835  -10.10690391702667   -5.77732560922841
C         -13.39342836271979  -11.11757781190254   -4.85988842038863
C         -14.27088988875045  -12.22015784706336   -4.91946665103107
C         -14.41308377175499  -13.11833159180411   -3.89995803356008
C         -15.23839436578045  -14.24811940743852   -3.96281349370661
C         -15.39144793953337  -15.14780551117452   -2.93437689803019
C         -16.15341435552019  -16.34209869088981   -2.95674805639177
C         -16.10588525482287  -17.05520474082655   -1.79797493685873
C         -15.31793829153367  -16.45380210358358   -0.78876740571759
S         -14.62754181524880  -14.95890401911362   -1.36476239882676
C         -15.08228246381447  -16.92357632069377    0.49154172897029
C         -15.52867906044570  -18.14138868355220    1.05808161327285
C         -15.10664049415821  -18.32351290630730    2.33765198558246
C         -14.33759461679890  -17.24788164613318    2.85929482685709
S         -14.16220173406150  -16.00788659867976    1.65705357837484
C         -13.72295073169483  -17.27197858778142    4.09738461351530
C         -12.94992600841574  -16.30328579838555    4.74059259941234
C         -12.97978929856005  -14.92718863584060    4.61807263105117
C         -12.02551260609790  -14.01755060930016    5.21144015502576
C         -10.78380217605487  -14.34222748576433    5.69960138910182
C          -9.88557731365477  -13.41015637619239    6.25720764061760
N          -9.11450192603361  -12.70076433907300    6.72723058494525
C         -10.22211997743080  -15.63530460122620    5.67970929612544
N          -9.68720262916771  -16.65189213423781    5.68127810455714
C         -12.57578133726463  -12.66846015313022    5.12115666943614
C         -13.81692893322004  -12.73602962037390    4.44270491067955
C         -14.10689731579895  -14.14186900127955    4.09799878099018
O         -15.11745865272583  -14.55670302627615    3.55651516224375
C         -14.59143850856093  -11.62830715572595    4.20393783818680
C         -14.11756662271041  -10.39151799324520    4.65703581792565
C         -12.87654481065581  -10.33372298141006    5.33261129652259
C         -12.09183323459224  -11.45621097587223    5.57293965287540
S         -12.48591931827167   -8.71008726029566    5.81485876905014
C         -13.97629758013030   -8.14009012298104    5.11331322772080
C         -14.72800093183556   -9.11234170085015    4.54455012122106
Br        -14.40198165704433   -6.31472249879118    5.19837910230556
H           2.23024226223686   -7.98527578643830    7.59314577608877
H           0.07442270625584  -12.13074303232485    5.93494328969872
H           0.64745352303643   -6.62946685008342    6.32829520236822
H          -1.55000222044069  -10.76522374513877    4.61645952791690
H          -3.10736506810853   -5.03373791949411    2.58634922976526
H          -7.35842665670422   -9.25458905338619    1.35145777115770
H          -6.16948894184661   -5.24818557611476   -1.55639705031210
H         -10.10369425024115   -7.70525616108505   -3.97228607430391
H         -10.80050877010893  -10.06450933922757   -2.11963147235931
H         -12.72375086374702   -7.87136692264196   -8.05820124013359
H         -14.83182824346410  -12.32221102885531   -5.83674956313950
H         -13.84782231044935  -12.96006333116453   -2.99025655235818
H         -15.77876792795847  -14.44016586141331   -4.88025285921006
H         -16.70482198892607  -16.63728123602872   -3.83179035435284
H         -16.61893615553885  -17.98620514869076   -1.63897158890987
H         -16.13133113534317  -18.84352038577801    0.51115354783468
H         -15.33094323822790  -19.18942934839040    2.93515163963655
H         -13.78345536744833  -18.22768176360169    4.60609726788463
H         -12.27262310502587  -16.69998380543978    5.48855643791198
H         -15.53434548232695  -11.71099482688412    3.68645271186798
H         -11.15597197990447  -11.36137761180374    6.09789777195029
H         -15.67525901530520   -8.93685266465520    4.06805501073258
