100
 SCF done       -176.061249583099          0.000649383203
C         -16.47588046561500   -3.62299148579674    1.76103598266419
C         -17.25378616616512   -2.73779080593119    1.06673810514305
F         -18.56129436161536   -2.63060146208241    1.34218181671718
C         -16.69462470768342   -1.93125711002725    0.05776152666712
F         -17.47909230810305   -1.07121685048234   -0.60905284145483
C         -15.36361444037822   -2.01995639771394   -0.24427797160646
C         -14.53766488828802   -2.92159541505162    0.45236941219806
C         -15.10203876526497   -3.73888315322249    1.47354608415524
C         -14.29127802096961   -4.65446494214530    2.18572868402350
C         -12.95915509951774   -4.75035634569057    1.88480450565955
C         -12.40325192574996   -3.92799680009421    0.86160637535547
C         -13.15938814792177   -3.03498875529098    0.15905134483891
C         -10.97271703098828   -4.23285073601841    0.73867861153737
O         -10.16474083341356   -3.72255774569500   -0.03716983937925
C         -10.68746355547918   -5.27264554129381    1.72578066717881
C         -11.90011854017385   -5.59289339916024    2.43685411025004
C         -12.05288608249234   -6.51409030548376    3.44461260442792
C         -11.00732192951233   -7.31058374531042    3.95000073112469
N         -10.18367458061883   -7.97774383191314    4.39265966196166
C         -13.27236552709476   -6.77666649441161    4.09769624235578
N         -14.23867162929942   -7.03267218571799    4.66350183533222
C          -9.42360741457177   -5.80378957279219    1.86485417726411
N          -8.42967667771123   -5.36320589339634    1.08382750722511
C          -7.14346930455920   -5.78229711824836    1.06756071114297
S          -6.57416593253275   -7.02603447371748    2.14027956702548
C          -5.00241350049342   -6.89382316183552    1.41647981643895
N          -3.98323545507846   -7.71939739402631    1.89651515052592
O          -2.88313394278527   -7.61824906325753    1.37783370199359
O          -4.27007847040314   -8.48319193973613    2.80420784605762
C          -4.93149917680950   -5.95698513221112    0.41924761257958
C          -6.15422879759726   -5.29781933734385    0.19724455796285
C          -6.38323899888761   -4.26186333615362   -0.77449651140344
C          -5.50609036183643   -3.90114791628637   -1.73103365435997
C          -5.77765850648461   -2.85373500234319   -2.67019734714915
C          -5.01040160873589   -2.49384380340803   -3.71230545548111
C          -3.70816798500810   -3.12539655061164   -4.08698202628427
C          -5.44172588723579   -1.35912367523983   -4.61337037929050
N          -4.53991034783256   -0.23308342415846   -4.51038283281730
C          -3.45737151326422   -0.09433128381460   -5.30645025719014
C          -2.37779493805617    0.68656554725028   -5.02716845945270
C          -1.29872121571614    0.83514687882100   -5.91388173688474
C          -0.16208071702352    1.56060823279931   -5.66194192464336
C           0.96089039737854    1.70299557448863   -6.50891137632108
C           1.96558568460890    2.46269958088838   -5.98792353219435
C           1.69228603543770    2.97114364835225   -4.70058535599598
S           0.11061933523870    2.45251900515859   -4.16682888744028
C           2.51458087598486    3.76213896872900   -3.91532133941261
C           3.80836245012159    4.22744063791099   -4.22264928768247
C           4.38659891003013    4.97065740911754   -3.23413019313666
C           3.57553382085717    5.14679064283463   -2.09181975622095
S           2.03433479789716    4.33380134067923   -2.33205047217756
C           3.78884259971238    5.89570503951755   -0.95305030589488
C           4.99379964720213    6.45312875925014   -0.50745701932435
S           4.91602135331523    7.87552276183084    0.50020535336043
C           6.63831436161243    8.02754656221964    0.59390624418716
C           7.26038494692225    6.97046875289804   -0.08442738337665
C           6.33837045811985    6.06578344270430   -0.68890263175651
C           6.82772353368234    4.87947564992269   -1.25963529380262
C           8.17468366485128    4.62882756412753   -1.32066346452162
C           8.67280257433107    3.35275212207252   -1.92461934607573
C           9.09937698020352    5.57592851526970   -0.80129607124469
C          10.56976041109069    5.31048537510276   -0.89735636956185
C           8.64093578727002    6.70955692050350   -0.18501968651506
C           7.26122693738006    9.10344870176022    1.29174448155101
C           6.61404315477046   10.06770672045137    1.95311415695144
H         -16.92054093315182   -4.23380908358346    2.53109627038130
H         -14.95078095706063   -1.39468745416405   -1.02044625918714
H         -14.74853010668240   -5.25866586492654    2.95222358459823
H         -12.71511714035647   -2.42417880099054   -0.61215548190839
H          -9.19040484561820   -6.57765217630273    2.58366661903043
H          -8.72751058793047   -4.62656908156026    0.41771997067731
H          -4.01609707152908   -5.76287376129262   -0.10778927271090
H          -7.33381769477029   -3.74680976523337   -0.72806462277054
H          -4.56481505079781   -4.42110882854408   -1.81413794195814
H          -6.71181884950025   -2.32708624515392   -2.51469051839090
H          -3.28019880271263   -3.69994467812616   -3.27258460683254
H          -2.98740761925624   -2.36382201031348   -4.38522146440008
H          -3.85317366746531   -3.79355905034359   -4.93721421356849
H          -6.44813437294672   -1.02457541337689   -4.34693947193436
H          -5.44793247584802   -1.68955360651947   -5.65628925538737
H          -4.47917353633797    0.18891126225484   -3.59353737470448
H          -3.51242074416960   -0.62135771889171   -6.25052764271033
H          -2.32670213475188    1.20780298212976   -4.08049440316597
H          -1.35162545905851    0.32295975459371   -6.86627273666262
H           0.99265011431808    1.23528693309880   -7.47742642439078
H           2.89044362317466    2.67037056575603   -6.49526138972429
H           4.28064319926696    4.01325914385157   -5.16473013092912
H           5.34748668287973    5.44437720369435   -3.32269185435392
H           2.91362284271785    6.12620691390677   -0.35823649597969
H           6.12900667212262    4.14271324115302   -1.62487636756932
H           9.32766577489990    3.55660946627835   -2.77127328016963
H           7.84202649067208    2.74191822107634   -2.26877796874878
H           9.24458820207967    2.78012665232189   -1.19505280084601
H          10.87169418579171    5.19219873261169   -1.93742923989704
H          10.82930794584908    4.39258224653150   -0.37080548403779
H          11.13763707610253    6.12950726670491   -0.46349635315030
H           9.34378186831181    7.40602500027586    0.24721131489053
H           8.34288171171802    9.10802354311349    1.26310628329300
H           5.53791906506655   10.08982009976831    2.00257036216176
H           7.14187763587402   10.85301154277783    2.46331847525357
