99
 SCF done       -212.518827054269          0.000766426898
C         -14.86653777286054   -8.30477347730738   -8.64215010993798
C         -14.29479216666476   -9.28946809677780   -9.39919565072515
F         -15.05605395885428  -10.04555894297947  -10.20068217922564
C         -12.90510722612996   -9.52256077171593   -9.34877414889636
F         -12.38204555676958  -10.49409051281632  -10.10555475893971
C         -12.10324410152095   -8.76638998576463   -8.53971653894804
C         -12.66365977670819   -7.74473875472995   -7.74863588746334
C         -14.06814886444386   -7.50788805227489   -7.79860440228058
C         -14.64688047520841   -6.48261490998677   -7.01429842505614
C         -13.84751976417505   -5.72284908942697   -6.20310399220461
C         -12.44277459974045   -5.97163409651570   -6.15514761312295
C         -11.85480031355127   -6.94953247923718   -6.90685311732476
C         -11.82731422282800   -5.02897519240730   -5.22180171005916
O         -10.64288053407929   -4.94470862089954   -4.89912509621969
C         -12.91362274170845   -4.17609288577200   -4.72151585475306
C         -14.16151267823480   -4.61050614089383   -5.30973205423255
C         -15.40677216866101   -4.08909927603633   -5.07854430651786
C         -16.58990099387961   -4.56168548266367   -5.68345572344832
N         -17.58478195518943   -4.90384337737465   -6.14182566069255
C         -15.65923179786981   -3.01635264950675   -4.19917716165127
N         -15.90062497379095   -2.14635991395867   -3.49028768492950
C         -12.66686344868596   -3.14177255020540   -3.85530676038485
N         -11.41368808850299   -2.90967880237642   -3.44135637236237
C         -10.98716938729312   -1.91376653392262   -2.62828669217601
S         -12.08229284698403   -0.73920754277743   -1.97078029280500
C         -10.74216121007737    0.03895046242687   -1.19675845978862
N         -11.00505488237986    1.17284972291770   -0.41139235586306
O         -10.06051266863328    1.70923023250794    0.13334067811645
O         -12.16656733756052    1.52753007998575   -0.33760804938453
C          -9.53782402696187   -0.56531625670628   -1.43440160152459
C          -9.65266857758884   -1.70190763904832   -2.25907097500156
C          -8.56316325758353   -2.55701369004900   -2.65810786192842
C          -7.27084932070766   -2.21518681827936   -2.52344813045267
N          -6.22777070157851   -3.04166349544832   -2.85147850638219
C          -4.91823149893313   -2.70831583812499   -2.74319156106954
S          -4.46959010251726   -1.10586402436923   -2.24566625082525
C          -2.79712105020273   -1.56480948335955   -2.28525908037198
N          -1.85021036908741   -0.59206288754703   -1.95146103910686
O          -0.67692627573714   -0.91294872868452   -1.97352331520281
O          -2.28331385818527    0.50995843847150   -1.66027234377071
C          -2.60845940285783   -2.86761472696743   -2.65083449010590
C          -3.81071702567115   -3.54503910316898   -2.93917426020209
C          -3.78016901336138   -4.92765907667959   -3.34317963943151
C          -4.68625673906665   -5.63482712452671   -4.03796858074028
N          -4.46976069873830   -6.96103795322870   -4.33669407091265
C          -5.26435575178404   -7.76503536681375   -5.06845232582791
S          -6.75396060352389   -7.19050082253278   -5.73961910498077
C          -7.03938187801474   -8.76841847224120   -6.41834306471026
N          -8.20414754780576   -8.94240262932942   -7.15465665439824
O          -8.46197132934252  -10.04816865450504   -7.59109830265194
O          -8.90717090787572   -7.94930091634012   -7.30759444516607
C          -6.04842606474228   -9.66833043650181   -6.14269772073051
C          -5.01069141922105   -9.12166927758630   -5.36351615952743
C          -3.83820846624155   -9.82214339636095   -4.94290621978203
C          -3.58226244510449  -11.13048556353307   -5.18363999793182
C          -2.37498064110813  -11.74670181877328   -4.77431680891946
C          -1.91039496190186  -12.97871463888669   -5.11810773139884
C          -0.82595309878726  -13.60291980728142   -4.31001524984817
O          -0.12325729097939  -13.04735714867408   -3.49779562739434
C          -0.84728791219768  -15.03300694840530   -4.67254544254681
C          -0.12953918015836  -16.06350458615806   -4.13700600160432
C          -0.34175530835199  -17.37331103114682   -4.62173991164297
C          -1.30382227174039  -17.59053112493223   -5.65091295181236
C          -1.51898799421171  -18.90121129861608   -6.12236028871199
C          -0.80974402747862  -19.94607749674649   -5.59972605635420
C           0.14384089658404  -19.72954633534241   -4.58399664164434
C           0.37398076681350  -18.47055793094840   -4.10436749164550
F           0.82342819834087  -20.77202268889481   -4.09040537328135
F          -1.01480274251555  -21.19003011721479   -6.04851177517000
C          -2.02644610277135  -16.50272577677845   -6.19212675571341
C          -1.79543815273359  -15.23967376999049   -5.71595118585343
C          -2.35198215878044  -13.94457217677262   -6.10241300001512
C          -2.97570053279296  -13.67702905213461   -7.29258495716500
C          -3.25681138627223  -12.37915642438014   -7.76899734244502
N          -3.47287024205979  -11.34479574817599   -8.21749269231680
C          -3.31377600051209  -14.67051054175325   -8.23670088419730
N          -3.62061279619737  -15.44284490961303   -9.02759177671172
H         -15.93164035419761   -8.14120723075648   -8.69481051785236
H         -11.04130580302764   -8.95188774969436   -8.50785948449084
H         -15.71113772224712   -6.32318447235822   -7.07887346430588
H         -10.78839500966122   -7.11062112929658   -6.87467847644059
H         -13.44457031098887   -2.48500618940968   -3.48779531964412
H         -10.72516798795401   -3.57449273614973   -3.84494762968611
H          -8.62495450223292   -0.19694016008620   -1.00480500868748
H          -8.81343643971868   -3.52081127119282   -3.08008053623440
H          -6.97768894672693   -1.24618808004428   -2.15013705518396
H          -6.45078510213896   -3.99424703541267   -3.10756163423974
H          -1.63082275770774   -3.30901986111006   -2.72246427911609
H          -2.86032256263175   -5.43138666319505   -3.07147288928101
H          -5.60172640035293   -5.23054500291479   -4.44153867042735
H          -3.60376420809881   -7.36003390483212   -3.99419423670754
H          -6.07573754039568  -10.67383255081155   -6.51870454037550
H          -3.07511137932243   -9.25171150864943   -4.42767386561666
H          -4.31550972000860  -11.73712258672061   -5.69047357852611
H          -1.76318013389208  -11.21267138708244   -4.05385506782051
H           0.58997228173386  -15.88183405833045   -3.35324848124873
H          -2.24202790802127  -19.08415087337594   -6.90184532676404
H           1.10669743068480  -18.32154737727215   -3.32679478167078
H          -2.75300713794655  -16.69792521583020   -6.96458312511077
