90
 SCF done       -191.113121241582          0.000884831069
C          -1.67267696094583   -8.49424666724104  -10.45293338835776
C          -0.55816726881172   -9.04881695665106  -11.01654449625993
F          -0.55877680539679   -9.39560092057890  -12.30914461811866
C           0.60482044801115   -9.26247978366874  -10.24793001396469
F           1.68194110555981   -9.80658932930670  -10.82773708904052
C           0.63659587701902   -8.91785819581995   -8.92592272704274
C          -0.49556626822529   -8.34251774016828   -8.31622127628616
C          -1.67279196895594   -8.12753446379225   -9.09154152793659
C          -2.82117075908519   -7.55457048547123   -8.50087234527678
C          -2.79450297459280   -7.20712559338435   -7.17455993811746
C          -1.61196385753676   -7.41742865511677   -6.41097700669398
C          -0.48694926629127   -7.96897416761343   -6.95497171599959
C          -1.81724909836353   -6.94351198326737   -5.03275359090169
O          -0.99283172160032   -6.89840202815590   -4.14874189727941
C          -3.21536418376447   -6.41398731058712   -4.99939013259098
C          -3.81274684131030   -6.62131413965799   -6.31198911657341
C          -5.11905422183148   -6.39757342555879   -6.64420356245816
C          -6.10442167457883   -5.91948095707723   -5.75178839566918
N          -6.95571129088623   -5.55401349326145   -5.07492210590035
C          -5.66297189478765   -6.65090456274550   -7.92277966483387
N          -6.15434226795653   -6.83178083743170   -8.94353191550691
C          -3.72967845386883   -5.71032443144663   -3.96621627164578
C          -3.13947625723320   -5.67823802317264   -2.64946365393291
C          -2.99671545843257   -4.52305169438731   -1.89347814137811
C          -3.33080965714692   -3.23475110467129   -2.30841751992250
N          -3.61412699338115   -2.18168201995089   -2.66870021735001
S          -2.24169718788772   -4.81762323955435   -0.35903201700119
C          -2.16022839110847   -6.52695522345737   -0.68231048202599
C          -2.67693617341491   -6.81779721682124   -1.94787084284635
C          -2.78649308182708   -8.12353036146828   -2.44805091079440
N          -2.90197895976587   -9.18696891401008   -2.86434745640562
C          -1.63678033237987   -7.47565120743292    0.21239221845258
C          -1.06925189970758   -7.23628141654510    1.43542125432756
C          -0.53956676777460   -8.23001828506588    2.30498284839162
C          -0.00232489367614   -7.73973360484869    3.45084656884461
C          -0.07532517977495   -6.32824137862597    3.55896753493027
S          -0.86534406985052   -5.64984102600943    2.14945847864420
C           0.39222797137738   -5.53066272230857    4.57812998344389
C           1.05293656350705   -5.93556712698091    5.76803141575231
C           1.40840511588365   -4.90789591052608    6.57554646884377
C           1.03593340123862   -3.61915755460605    6.08577762876008
S           0.23360714621981   -3.79046151652916    4.53161802997186
C           1.34539564999269   -2.43620208326788    6.68348042080099
C           0.95916209466696   -1.12541960888583    6.25800116368416
C           1.80230185358979   -0.02700362270223    6.40998861285324
C           3.09867795550657   -0.06038139378133    6.92169712064734
N           4.16463810816129   -0.10306212534926    7.34669882320970
S           1.11166993057861    1.45029918221080    5.83452462717845
C          -0.35948872969679    0.63310164600813    5.41201135346630
C          -0.27844203379644   -0.72789141228787    5.67472089630397
C          -1.42036837334865   -1.53900703214751    5.54387285174592
N          -2.38677737298887   -2.15045393455783    5.46359003679533
C          -1.46583708312923    1.29693050020527    4.80382461754548
C          -1.84495489824721    2.58977414856717    4.92503269695339
C          -2.74715404249017    3.19349963084693    3.89224774474830
O          -3.39766200796294    2.59733336068856    3.07176776999810
C          -2.59903960321425    4.65088896753213    4.06671839187032
C          -3.10349742468114    5.65978480084167    3.29649705214927
C          -2.81301807444767    6.99807821165345    3.64227915113422
C          -1.99533298102811    7.26702770582083    4.77947250742406
C          -1.70356509234210    8.60509559204834    5.11310496336920
C          -2.20319122854631    9.62784661880176    4.35674278371293
C          -3.01401610242181    9.36094832543855    3.23384108749542
C          -3.31314906012860    8.07424713679228    2.88310333948450
F          -3.48808174153251   10.38269398224154    2.51210364167155
F          -1.92664933250900   10.89711722472052    4.67514088821116
C          -1.49193887985333    6.20345977470801    5.56195715449634
C          -1.79655667336757    4.91403659883321    5.21478720728841
C          -1.46239474158291    3.64343751247055    5.84858062686903
C          -1.12258772027209    3.47508605221228    7.16284312108464
C          -1.07141344412936    2.21260425368679    7.79149281799053
N          -1.05146601055215    1.20127982399602    8.33325233393879
C          -0.87092490178951    4.54455249963959    8.04841251745742
N          -0.64131498115889    5.38369188331768    8.79572971406316
H          -2.55440782717575   -8.33946075484374  -11.05498398903396
H           1.53364645272182   -9.08741699968178   -8.35127610040976
H          -3.69384005499519   -7.39911535454731   -9.11445488831355
H           0.39507736295104   -8.11913945764461   -6.35131005957171
H          -4.62343418238909   -5.11321454891502   -4.09824287892416
H          -1.67989834463471   -8.50490177268482   -0.12161998679728
H          -0.57694740252612   -9.27230078811646    2.04282759660079
H           0.44461009946441   -8.34528716919448    4.21822732612929
H           1.24446035271525   -6.97104115175461    5.98390292019658
H           1.91701616956215   -5.01438604690628    7.51697190994316
H           2.00917580200509   -2.47385825996795    7.53796340624230
H          -2.04439406778888    0.69957466239251    4.10382272707287
H          -3.71627630058517    5.43873811463456    2.43595955714954
H          -1.08849297226517    8.82729230419142    5.97109689713935
H          -3.93443738459345    7.88673212969649    2.02141449610225
H          -0.86849530508478    6.43232654914529    6.41176463776697
