91
 SCF done       -185.690996911261          0.000568866716
C          -7.49244773575832   -0.31324816333118    0.72759901566947
C          -8.66272749780200    0.34232215873621    0.99196888717936
F          -8.70891702624113    1.67834000223476    0.97276172979639
C          -9.83726962052504   -0.37843013573721    1.29054623629308
F         -10.96859338808851    0.28912418131772    1.55019806284893
C          -9.82985232411465   -1.74545748478984    1.31128558797217
C          -8.64126545629470   -2.44984249888697    1.04091565180092
C          -7.45072661244485   -1.72164474483530    0.75176781781465
C          -6.24492724005778   -2.40875955252593    0.48474409168021
C          -6.23782937848250   -3.77947976178282    0.47632844512102
C          -7.43404249688024   -4.49910727637348    0.75572092012065
C          -8.60605841731983   -3.86299038445441    1.04462182324580
C          -7.16096906424273   -5.94775286579282    0.68198112089313
O          -7.90237517413255   -6.85229392536138    1.01467281916870
C          -5.75446287634410   -6.06248497677299    0.25299516503594
C          -5.18379639176044   -4.73516462509347    0.15800136887160
C          -3.92971376959330   -4.41840341169498   -0.29889349032465
C          -3.42650584275183   -3.10417343319898   -0.38062312331954
N          -2.95752167120811   -2.06070545394897   -0.47212425444092
C          -3.00134422265252   -5.35216081482525   -0.79977425512288
N          -2.23201063321968   -6.06706266403610   -1.26562124590235
C          -5.07388513204817   -7.24023498630581    0.08584795435655
N          -5.60555078736630   -8.45486805289757   -0.15815338898246
C          -6.86644637929138   -8.82135946765786   -0.55712740399902
S          -7.37027763548700  -10.41541863532729   -0.06785291714763
C          -8.90014706223094  -10.16568190297853   -0.82841709891660
N          -9.84203015901550  -11.20727589952499   -0.78600770500094
O         -10.91356252177503  -11.01877988530686   -1.32587737177787
O          -9.50358484012657  -12.22614659948786   -0.21292253456085
C          -9.00892774897119   -8.93968178864409   -1.41840131278803
C          -7.83941907532765   -8.15314919626471   -1.30682026932907
C          -7.79558913176065   -6.85710585820771   -1.92935571852972
C          -6.71241001451991   -6.15639606715286   -2.31476001612046
N          -6.83083321177949   -4.89053795382469   -2.82747734013235
C          -5.82806446164093   -4.00133294776812   -3.10885647233830
S          -6.13515019717203   -2.32914371804860   -2.73506058791993
C          -4.53995281027384   -1.92797997711948   -3.28135837526348
N          -4.16755011033357   -0.57946360174320   -3.18417217846681
O          -3.09587516592010   -0.24675892061769   -3.64237034364340
O          -4.97468102088960    0.15719714289477   -2.64074870379090
C          -3.83119844056001   -3.00548119654642   -3.72418701243951
C          -4.55497262355349   -4.22169980366665   -3.64720381276162
C          -4.08065885992185   -5.48321107913498   -4.12938096131852
C          -2.84861401979308   -5.70519124345516   -4.65742287333559
C          -2.43418169302533   -6.95993905126180   -5.14001748172555
C          -1.24722525995032   -7.18812523393977   -5.78644908793329
C          -0.77672086094697   -8.42999203645753   -6.28487577552268
C           0.41318544215416   -8.35686035129728   -6.93928875682580
C           0.95158245174429   -7.05047719681107   -7.00613843191687
S          -0.09366744368608   -5.92083365476436   -6.17140383821618
C           2.09996434191101   -6.64453077808999   -7.65466180268316
C           3.00552107030608   -7.44841114315150   -8.38740155802777
C           4.02328316574757   -6.75860741432395   -8.96653101721463
C           3.98420851630519   -5.35806240886050   -8.72318453246508
S           2.60109780822482   -4.96714418731200   -7.70609437881995
C           4.81812762133148   -4.37580884595603   -9.17128229908509
N           5.89638119674255   -4.61128061515032   -9.96482869431682
C           6.70587115542081   -3.67685972432394  -10.51657288797547
S           6.38206513354038   -1.97959949105748  -10.34230059623901
C           7.72750525140639   -1.63300419900841  -11.38623449912371
N           8.00930496103132   -0.29510501193795  -11.64722777694892
O           8.94844155449707   -0.04199365455328  -12.38335852099743
O           7.28204717216646    0.53188919176340  -11.11606485009876
C           8.36612801467281   -2.75964949680007  -11.83935026823506
C           7.80909837421858   -3.94387093037578  -11.33668739330347
C           8.34078243539164   -5.25735455415482  -11.65866303361405
C           8.31948017001724   -6.33722670921750  -10.88404517455532
H          -6.60510527074653    0.25105025668487    0.48675600233533
H         -10.73888306833430   -2.28049234459247    1.53766028256296
H          -5.35743162860963   -1.82809605987802    0.29320335476733
H          -9.49829439023282   -4.43000804785402    1.26302479173796
H          -3.99202288840650   -7.24122456276172    0.11799580991858
H          -5.00387251484255   -9.24319372809779    0.05310983660336
H          -9.89783063214707   -8.62407004796432   -1.93446381537069
H          -8.77020577197661   -6.41675202146295   -2.09626959883277
H          -5.71166556811084   -6.55114688726528   -2.27465626632042
H          -7.75212098052444   -4.47882251589825   -2.73946361434591
H          -2.82764053238619   -2.91236463523643   -4.09519141753056
H          -4.78165939993366   -6.30549980041463   -4.11799847063926
H          -2.13043721173265   -4.90067865264410   -4.72371216965538
H          -3.09734066352218   -7.80514785045680   -5.00849320004957
H          -1.33921715407622   -9.33609227425744   -6.14404663759929
H           0.91189911539699   -9.20004614959098   -7.38238684973938
H           2.87687296193492   -8.51248044172617   -8.47097589164682
H           4.79068917876593   -7.22133779181933   -9.56298732893250
H           4.64445791557720   -3.34571985143048   -8.89987759717153
H           6.08100101765852   -5.56849888724813  -10.24362649987814
H           9.21726094463905   -2.71518133126388  -12.49451970949581
H           8.82842634920569   -5.31050129784768  -12.62334896650972
H           7.93404410904526   -6.33530378433687   -9.87740485480230
H           8.75567375365469   -7.26315632698464  -11.21611046247807
