112
 SCF done       -200.713622470693          0.000927482807
C         -12.19747407522468   -9.75579103300477   -7.40897186493173
C         -12.90835882081028  -10.85784760382601   -7.79278704232664
F         -13.54398667860744  -10.87425003241504   -8.96988435234130
C         -12.99336610512772  -11.98346728410191   -6.95012682469481
F         -13.70112399692264  -13.05002556736846   -7.34638628064215
C         -12.37231556910547  -11.98980224215977   -5.73279201623001
C         -11.63384574607046  -10.86883730201517   -5.30881416895077
C         -11.53945018614507   -9.73321856339881   -6.16389001925897
C         -10.78388005550390   -8.60618563235541   -5.76815087241830
C         -10.12460338405698   -8.62365963820567   -4.56792626129304
C         -10.22478693615094   -9.76113252401324   -3.72021687787219
C         -10.97300871989507  -10.85074693851206   -4.06016476064072
C          -9.38396875196610   -9.54771077204094   -2.52686547276907
O          -9.27965760228557  -10.30417752396583   -1.57528913593667
C          -8.73264257094952   -8.25117151747915   -2.71785158648265
C          -9.23445062613609   -7.65265620603863   -3.93559823840305
C          -8.93952765339781   -6.41209013149532   -4.44544540896822
C          -9.49159433631165   -5.89264569527970   -5.63282444151144
N          -9.89839941917808   -5.39876773448858   -6.58680643056949
C          -8.04954763939779   -5.47392159192104   -3.88652852742395
N          -7.33613127879173   -4.65265089856117   -3.51442729842662
C          -7.77972966377014   -7.68800333889151   -1.90062005232247
C          -7.10138204444723   -8.19841043305770   -0.79314644090735
S          -7.32423215497181   -9.78637639410853   -0.09665765540641
C          -6.01506559100234   -9.52827303608339    1.00117165832362
C          -5.47220059371667   -8.25348480842092    0.87801276994498
C          -6.07344293713703   -7.50509631910060   -0.12914525885189
C          -5.56840175713062   -6.14809037572560   -0.51365113422707
C          -4.59515698784025   -6.33090571845893   -1.68821524508459
C          -4.86354727477354   -5.41376364054597    0.65052392169358
C          -4.93652706659403   -6.15588156289990    1.98062855725662
C          -4.48830487799038   -7.60590747520377    1.79676841418202
C          -5.58732276404585  -10.55924829883884    1.89991359419582
C          -4.29751875776354  -10.71710281345756    2.25202537371640
C          -3.75602699648084  -11.65839701214769    3.20067673861097
C          -4.28120960904366  -12.01103849570088    4.38039977330874
C          -5.57871510258143  -11.49630130708508    4.91832453670446
C          -3.50177999888192  -12.91207814497643    5.30818300343100
N          -4.31645152595093  -13.97155680444842    5.85706054657157
C          -5.21270559610144  -14.65923426016283    5.14146321488368
C          -5.97595936305987  -15.66967553789453    5.65417052407178
C          -6.98583006553960  -16.36975921329517    4.97919816040962
C          -7.52649925318229  -16.17478545975932    3.72868759520329
C          -8.58373163502700  -16.94813312964440    3.19702854473403
C          -9.00574523465034  -16.56298625141818    1.96000449012131
C          -8.29781764360896  -15.46418316740459    1.42936897277139
S          -7.08230064193407  -14.93163960628697    2.55865312571222
C          -8.50426322909802  -14.86800122711846    0.19351278936481
C          -9.51109477612529  -15.20746462557089   -0.72820293278445
C          -9.48083502245028  -14.45880572055774   -1.86966050153471
C          -8.44299610697924  -13.50757563974217   -1.90809171474852
S          -7.51200413539800  -13.56693888357922   -0.44094635716374
C          -8.21354183276835  -12.65833683537050   -2.98066480723226
C          -7.20411045786891  -11.72766350610061   -3.09490020765668
C          -7.03519389994276  -10.82256052173797   -4.13869827333142
C          -6.21393599756608   -9.62520186186254   -3.91825636325439
O          -5.50369025714171   -9.38228689309665   -2.95766629688801
C          -6.47828398798815   -8.73505849904941   -5.07022246085441
C          -6.00704812907241   -7.48074189211190   -5.32550680924997
C          -6.44751556662539   -6.79902336191755   -6.48359674868569
C          -7.34859067881215   -7.44916051693304   -7.37340467816111
C          -7.77993215950818   -6.77031520526384   -8.52924724642224
C          -7.34462648061912   -5.50015314975005   -8.78380226303751
C          -6.46391849605302   -4.85355832594253   -7.89536593439470
C          -6.02086050189608   -5.48848382662811   -6.76907758886086
F          -6.05282016270264   -3.60697274733919   -8.16962735258141
F          -7.74551818638387   -4.85957836717682   -9.88967003975269
C          -7.80319824214907   -8.75862895953912   -7.09148662781671
C          -7.38304164409643   -9.38914935460784   -5.95242942640821
C          -7.66078321136805  -10.72769458276341   -5.42293141004694
C          -8.29313610072862  -11.71607610766617   -6.15233742612592
C          -8.26846183201230  -13.09297452398448   -5.86623799764493
N          -8.24913545252200  -14.23586087639507   -5.74269410273692
C          -8.99846613430978  -11.48523781370526   -7.34502922971990
N          -9.64664086400481  -11.36999056712597   -8.28847268755568
H         -12.13520124958113   -8.90491866325809   -8.06876135637533
H         -12.44709638501399  -12.86143683948345   -5.10125405007806
H         -10.73328317385014   -7.76100048825909   -6.43499763840755
H         -11.05350812273120  -11.69194085012913   -3.38811443162108
H          -7.45086828822050   -6.69911411596052   -2.18869795127156
H          -6.40534476542429   -5.53458214139706   -0.85917615330975
H          -3.68489401515563   -6.82029070552036   -1.34945662398670
H          -4.34256373664490   -5.36527839653144   -2.11863523838197
H          -5.03946465723641   -6.96100114429425   -2.45289816542089
H          -5.30014667083018   -4.42131790496039    0.76862938412271
H          -3.81152469800681   -5.27572836482060    0.39390175197224
H          -5.96119926183148   -6.14787982982344    2.35953969151935
H          -4.30185869807355   -5.65327776541627    2.71246155833936
H          -4.45929947845172   -8.13061956162134    2.75388604516865
H          -3.48292892171478   -7.62350529081446    1.36783118569261
H          -6.33963526347905  -11.26287325902210    2.22632329703733
H          -3.55303011207015  -10.11149273128567    1.75212008012137
H          -2.77121970309378  -12.03415831481371    2.94758519576091
H          -5.82040143150285  -10.53538820699817    4.47021246518358
H          -5.52199300017803  -11.38463237229496    5.99985626628761
H          -6.39658575991069  -12.18228129041076    4.69820209644584
H          -3.12071866061648  -12.32021619333244    6.14742959662092
H          -2.63847247669006  -13.33499156843112    4.77747745407977
H          -4.17478663030186  -14.23257619943714    6.82123926616022
H          -5.29749504386102  -14.35886905040209    4.10827087104565
H          -5.79958588005188  -15.96076905379108    6.68187481138789
H          -7.44207110770372  -17.17912702910255    5.53638329891766
H          -9.00623261193726  -17.76895704948634    3.74965299373145
H          -9.79869254378332  -17.04516710151079    1.41894911062404
H         -10.23259269715967  -15.98033137771223   -0.53529650351994
H         -10.15965619425405  -14.58063599722838   -2.69470069864617
H          -8.93959616612534  -12.73779263258637   -3.77470664831633
H          -6.52795879565506  -11.59580983046753   -2.25685507545746
H          -5.30832057279024   -7.00116004663247   -4.65712875969517
H          -8.45942408217964   -7.24965805413682   -9.21610572406132
H          -5.35200847638860   -4.97789343375835   -6.09416598444413
H          -8.48408183217570   -9.22471371433388   -7.78477056892712
