89
 SCF done       -185.029834728188          0.000988664977
C          -4.88654100060251   -2.85725599937940   10.74108197673241
C          -3.82550625815945   -2.00960578504177   10.89237413407995
F          -3.60449289205993   -1.41010694024265   12.06852616483916
C          -2.95060583383934   -1.75503415655493    9.81603013501491
F          -1.91927189911423   -0.91951134786505    9.99368867328498
C          -3.14957135596274   -2.35230746793754    8.60319740044065
C          -4.23401062254442   -3.23172030918728    8.41562373883696
C          -5.11895572526827   -3.49087809809465    9.50304109552458
C          -6.20935470695880   -4.37417648108286    9.34053245434879
C          -6.40710159428167   -4.98654946118621    8.12920894193492
C          -5.52000077475800   -4.71841940999553    7.04890598510746
C          -4.46233488737570   -3.86343793361499    7.17425143031627
C          -5.93516544555351   -5.48691899076592    5.86610620234246
O          -5.49317411825989   -5.39908361783019    4.74296152525982
C          -7.10420956377190   -6.30674723221845    6.31172180637373
C          -7.41005499280558   -5.95075490679885    7.69179027926910
C          -8.40781552848222   -6.47592414854381    8.46316839845972
C          -9.32876167671855   -7.45958721210374    8.03896975724489
N         -10.09793727249754   -8.26729557467874    7.76998620476133
C          -8.64711081958662   -6.10871331681560    9.80629754277607
N          -8.89557734442157   -5.84636482789749   10.89493821668731
C          -7.77382024158202   -7.15039784381564    5.49697157530898
C          -7.24787568462577   -7.58904307560075    4.22342102222576
C          -7.95989369809081   -7.61448645312570    3.04214679046065
C          -9.27105734089730   -7.16260432235616    2.87732571487133
N         -10.35164869853705   -6.79411767736719    2.76037206010870
S          -7.01209848243931   -8.16347754036852    1.69176478762082
C          -5.67153050690548   -8.45306707977625    2.74579031809066
C          -5.91847102357569   -8.08526733903375    4.04986398803509
C          -5.01583616704492   -8.13726123203858    5.12881855958518
N          -4.34910990419141   -8.08891916237276    6.06074302350666
N          -4.51054814150520   -8.97163190285080    2.21571085357244
C          -4.23610435422160   -8.91281103993076    0.82302961715593
O          -5.03471950195836   -8.48140746490760    0.03005446640337
C          -2.90723364919008   -9.46421024434008    0.65219986800773
C          -2.43259091985177   -9.89338190984120    1.85166483263532
C          -3.50736625549083   -9.66061131778490    2.87600066030849
O          -3.52778399966992  -10.02710367286547    4.01922184978581
C          -1.23835876657182  -10.53326753121604    2.25611538549988
S          -1.29345629856006  -11.46153170667517    3.73212908607508
C           0.27857568809288  -12.05967667019633    3.44037841648777
C           0.85470113303086  -11.57373505898575    2.30184940457667
C           2.23108101859440  -11.93248380278671    1.85272386136588
C           0.00087479319434  -10.66541891801067    1.61523090117058
C           0.47602116195145   -9.94382770636381    0.46709925281239
C           0.10028522906692   -8.70718654311347    0.08418801359806
C           0.63521096840382   -8.03597638152756   -1.06257214978422
C           1.86033202873951   -8.24393293655923   -1.59502934091382
C           2.36633299511685   -7.55959222303552   -2.73947846742343
C           1.69625397514186   -7.15613958609226   -3.84892486072724
C           2.30421718803213   -6.12897019135943   -4.74373551165780
O           3.44364271318650   -5.72862719890413   -4.70985243586647
C           1.20663912564688   -5.68182327123023   -5.62339687741204
C           1.20520118977882   -4.68023133899107   -6.55145546450442
C           0.02301016387989   -4.42041991455502   -7.27981016908834
C          -1.14328356971812   -5.19851466383932   -7.02134134935713
C          -2.32020717951655   -4.93365937361160   -7.75048635474772
C          -2.33692548982836   -3.94673888140885   -8.69556421942462
C          -1.18264166405129   -3.17803283739241   -8.95088077892234
C          -0.02722083571213   -3.40810470754708   -8.25804141680332
F          -1.22881681053311   -2.21683361291872   -9.88150385101996
F          -3.45304636947794   -3.69947821846990   -9.39110030106229
C          -1.11262708565792   -6.22777743229315   -6.05354651703336
C           0.04980121611006   -6.47409714244014   -5.37186901711268
C           0.38422287501836   -7.48585171546975   -4.37309415818775
C          -0.30788683405419   -8.65055004432403   -4.17611121914511
C           0.14292213128174   -9.72518726086655   -3.38329578566213
N           0.45996431566998  -10.65381204941121   -2.78761107395163
C          -1.52845865143430   -8.95583647551767   -4.81531188115138
N          -2.52683036001892   -9.25187318192035   -5.29738817059006
H          -5.54521291803612   -3.04175657605776   11.57533228517515
H          -2.47137143686411   -2.14773481446650    7.78966471880616
H          -6.86080279975377   -4.54732053044066   10.18171670155899
H          -3.80484313327464   -3.68116205975346    6.33806560983362
H          -8.74165633078895   -7.54673860057686    5.77561600950265
H          -2.43410891044781   -9.53301611204162   -0.30794941009083
H           0.71789028796329  -12.74864884258885    4.13582853699071
H           2.66501625996672  -12.66726859128791    2.52495396679169
H           2.87109761860870  -11.05136374126427    1.84079259071389
H           2.20699989330425  -12.35125199082483    0.84766719069946
H           1.24108502421331  -10.44832480369477   -0.10643000283033
H          -0.66418024890582   -8.17847020098195    0.63577073591490
H           0.00824748136865   -7.26353278355876   -1.49336965291386
H           2.56223241702403   -8.88500177875983   -1.07951683331831
H           3.41485975547030   -7.27690725858935   -2.70999130203451
H           2.09556265211360   -4.09700792354612   -6.73056239358860
H          -3.21086729707152   -5.51502460640536   -7.56995403031817
H           0.84706658590977   -2.81122672773245   -8.46550802812969
H          -2.01246201308746   -6.79307098411170   -5.87047169439948
