106
 SCF done       -210.500292319462          0.000853563207
C          -9.82684278132811   -4.76288864262542   12.10915496330826
C         -10.68258190883209   -5.48761378965001   12.88963476381502
F         -11.12804155803286   -4.98501643610415   14.04706433727302
C         -11.10773770112805   -6.77118743935043   12.48817595726946
F         -11.94722309212665   -7.45775629351257   13.27304116086209
C         -10.67058625023450   -7.31154077451589   11.31167343984348
C          -9.78662018989441   -6.59013677536987   10.48507009352768
C          -9.35571472628471   -5.29250713810232   10.89013561521120
C          -8.46485055459938   -4.55318427507840   10.08145034911465
C          -8.01857046707575   -5.09485442263864    8.90299510151524
C          -8.46145142371206   -6.38572430114946    8.50060636507601
C          -9.31797367325380   -7.12547918924211    9.26567488616975
C          -7.84516743385429   -6.74464828821791    7.20829113069724
O          -7.86547528568977   -7.83007892789835    6.68069414072965
C          -7.14133337700085   -5.50198535850933    6.75469762303334
C          -7.10091329654863   -4.58202841574589    7.89524521952061
C          -6.29079530371140   -3.49303873267912    8.02926535306041
C          -5.31690214705419   -3.08397826225680    7.08898599844694
N          -4.48671090010557   -2.70793940812589    6.39287341211864
C          -6.27892017274177   -2.65977409644500    9.17068071569478
N          -6.23175252661246   -1.95031319400896   10.07074917333952
C          -6.73093273366649   -5.20040321347451    5.51193547369675
C          -6.85282512666127   -6.06595081493695    4.30092608961636
C          -5.90987584731083   -7.28398007967376    4.39397501626153
N          -8.23948985671596   -6.59798762085541    4.22905261733051
N          -8.80132870480072   -6.88862264294055    3.21074348872848
C          -8.24523432117759   -6.77078979576088    1.84646819478107
C          -7.26423497035083   -5.65955155588407    1.84856749054280
C          -6.58447513387308   -5.31085334309802    3.05426876277695
N          -5.85376758754103   -4.26131104059333    2.80954805324742
O          -6.04590081568653   -3.96486127537974    1.51723500902167
N          -6.90935922675459   -4.80656034041493    0.93143979794072
C          -9.41559536261388   -6.50981787775801    0.89269331015396
C          -7.54298663748936   -8.06187202058709    1.50172534127053
C          -7.99260720871196   -9.29261864404885    1.81079964939425
C          -9.16566760400477   -9.68513792330508    2.53633025839809
C          -9.31243092275609  -11.02088227145632    2.66645262631446
C          -8.27606771323636  -11.79125096483438    2.06287846385860
S          -7.09329062139279  -10.73252418094779    1.31557810215495
C          -8.14837254426935  -13.15277726717013    2.03470318036661
C          -9.01479086068072  -14.13582268239333    2.58931986458348
C          -8.59662512713261  -15.40768612181123    2.41341864637727
C          -7.35453872330975  -15.53832934397240    1.70394430062436
S          -6.77912179585316  -13.92713781414985    1.25600774889512
C          -6.75176777428561  -16.70969888133169    1.42113083992896
C          -5.44364977822587  -16.94284950499544    0.72591326113628
C          -5.60971893731164  -17.97522416406693   -0.39385100013245
N          -4.62598382493918  -17.58266353550104    1.78557032526047
N          -3.79686303369189  -17.03085304499465    2.46332377694088
C          -3.41021760564074  -15.62140305383539    2.39018946124025
C          -3.76147459585466  -15.08660478196100    1.04792772460031
C          -4.75810737333840  -15.72332403717941    0.24891951293389
N          -4.78972759619627  -15.11359304939621   -0.90204206318780
O          -3.88197208937004  -14.13235852471643   -0.83295224334296
N          -3.24638235661882  -14.11844229706415    0.34613131382523
C          -4.17165121858247  -14.84859040359884    3.48744042700487
C          -1.93718998261807  -15.46481435519755    2.61449665180943
C          -0.99757591011753  -16.37018383924451    2.91106797030419
C           0.44098512427842  -15.98600881640984    2.70142503996087
O           0.88479900789757  -14.86756670507127    2.64376880134416
C           1.15131523258081  -17.26453268788872    2.52079699956943
C           2.45083828620621  -17.47336641543225    2.15386261272988
C           2.91798059090524  -18.79715494526321    2.00604144391100
C           2.02319683639890  -19.88383878128352    2.23400290168104
C           2.49503728658955  -21.20312693411162    2.07613129705869
C           3.79221428146026  -21.43201154799581    1.71324120087352
C           4.67658006800957  -20.35629040162057    1.49026627679132
C           4.24997808495606  -19.06624013468658    1.63323535210670
F           5.94207008472438  -20.61187095514119    1.13497917482505
F           4.23855445088187  -22.68530069934945    1.56477448316686
C           0.68643236507141  -19.63786780685594    2.61970793612762
C           0.25724634370256  -18.34526599754213    2.77152275678382
C          -1.02442025774650  -17.80008768284507    3.21049113543729
C          -1.93962804741695  -18.46156943422524    3.97253084537846
C          -2.99064137509827  -17.83110532190536    4.67801159632547
N          -3.75970215939102  -17.37298533069846    5.39632968704438
C          -1.85796303233341  -19.84161342308481    4.26020857519764
N          -1.83052583847492  -20.96014386931858    4.51329187867191
H          -9.50950365593222   -3.78359856766598   12.43183038701780
H         -11.00492465682773   -8.29460849022879   11.01936424935104
H          -8.15997953200653   -3.57290137539621   10.41055582968239
H          -9.63446394215585   -8.10508414498515    8.94140234507807
H          -6.30074504272732   -4.22777351200698    5.31070274077208
H          -6.22794785871973   -7.91957313893832    5.21535750950085
H          -4.89437204393053   -6.93419910077060    4.56247302338166
H          -5.94515953623035   -7.85622487421430    3.46814854945959
H          -9.93846804405810   -5.60276903542005    1.18660737163902
H         -10.10754186930151   -7.34594169019474    0.92256090708333
H          -9.03472093625023   -6.38547918287253   -0.11704183491589
H          -6.62661768992344   -7.95717488064314    0.93916196085149
H          -9.83160182666783   -8.94602082972697    2.94402453730244
H         -10.13129406184477  -11.49183368447111    3.18019006081815
H          -9.91880812686539  -13.86103876319729    3.10243000691134
H          -9.11690067173005  -16.28005195459987    2.76603825739519
H          -7.22552269784488  -17.61973808660398    1.76012461880574
H          -6.02139505057679  -18.89323157881086    0.01494164794214
H          -4.64550340902039  -18.19275313940426   -0.84725647588225
H          -6.27449241602437  -17.57585119032635   -1.15457424914217
H          -5.24379348661618  -14.96245410392640    3.34864134770369
H          -3.91108675965057  -13.79541710713720    3.42316851359506
H          -3.90544332558786  -15.24051703709404    4.46471055973108
H          -1.58494523250614  -14.46095777728355    2.40085259427609
H           3.11125399089143  -16.63795019018733    1.97804792917529
H           1.83356162306542  -22.03795661794440    2.24720016055618
H           4.93808144312263  -18.25388975346181    1.45924819762727
H           0.02889377557534  -20.47760583003814    2.77839201476875
