96
 SCF done       -197.270404004164          0.000215786768
C         -12.61523337691243   -9.73546489023298   10.32311852083497
C         -13.71895859416394  -10.53771026238116   10.40016678288650
F         -14.43463312821112  -10.59186261534997   11.53129180685242
C         -14.11800780346374  -11.31637556422868    9.29545136303698
F         -15.20402283283744  -12.09442866895361    9.39947273318331
C         -13.40737003921198  -11.28212960529837    8.12839175996229
C         -12.26456725938752  -10.46662858227312    8.01808912517834
C         -11.86086440147394   -9.67755884303106    9.13405035444857
C         -10.71697635088155   -8.85140709946109    9.04655365757865
C         -10.00064846334837   -8.81843441309675    7.87948376739031
C         -10.40641597201348   -9.61432154710631    6.77238648328283
C         -11.50633145718617  -10.42030339547999    6.82665266268959
C          -9.45401264885529   -9.43227392218448    5.65891808711839
O          -9.47572441065775  -10.01073547936447    4.59080215034164
C          -8.42650653002497   -8.49954324151810    6.16073961972459
C          -8.80285011102097   -8.07911621742523    7.49834198658248
C          -8.20434571449803   -7.08741696964889    8.22939402718669
C          -7.13132786061781   -6.29335416943866    7.77082592501838
N          -6.28532116947170   -5.58885939032463    7.44487556264021
C          -8.62312113883127   -6.69746733214483    9.51863829815229
N          -8.91676707519015   -6.34563186477673   10.57093206750645
C          -7.20522122417606   -8.26658339077108    5.58962674966127
C          -6.75926264536472   -8.48737010218455    4.26734872704119
S          -5.05697990526993   -8.85778709929996    4.09564821791206
C          -5.18665477395135   -8.87203077347613    2.36716353044553
C          -6.46373889725462   -8.53759573640272    1.95054930017836
C          -7.35945256845823   -8.33435837601747    3.01993206920627
C          -8.75873317940450   -7.86532033570913    2.81358857327456
C          -9.10912235415333   -7.56328879515403    1.35121030203076
C          -7.89920278255873   -7.11109274608341    0.53003881130432
O          -7.36568474768498   -5.88541529478507    0.96822725109456
C          -6.85387711460480   -8.23874991571564    0.54192685065081
C          -4.01982353515967   -9.16943377893557    1.59586350243816
C          -3.91615668710937   -9.89667791118310    0.41946579450104
C          -5.02554525670187  -10.54967414440106   -0.13985333540862
N          -5.96322781808238  -11.07341217511120   -0.54154542178357
C          -2.57653651835061   -9.97723126401042   -0.05354359938243
C          -1.70315589366953   -9.30835738309923    0.79851184701535
S          -2.46700400016395   -8.59443790635242    2.16180751581714
S          -0.03904184158839   -9.32639258379737    0.31394750047081
C          -0.50958870100923  -10.24674177148068   -1.07648175046279
C          -1.86781470948667  -10.53837795068166   -1.15764073627016
C          -2.15748548912231  -11.30635887026387   -2.31804817806130
C          -3.39347899269006  -11.93203726405375   -2.54597815525857
N          -4.37263688619077  -12.52409961509603   -2.63643090996257
C          -1.02085354764461  -11.54820422046850   -3.08396387433245
S           0.43621984664375  -10.92671436392501   -2.34710922931836
C          -0.93584970186382  -12.22268359865054   -4.33622981026542
C           0.28414671032389  -12.77290242830969   -4.77621603799129
C           0.38796251718409  -13.56578236679170   -5.97202279773330
N           1.56274027401385  -14.09377371640533   -6.31212242639746
C           2.62216870681617  -13.86579060317408   -5.56093296017941
C           2.52784345242614  -13.05180996692899   -4.39116415613690
N           1.37611916414263  -12.54055122272820   -4.03068688154375
C           3.67848318166374  -12.78697941465372   -3.60654324768002
N           4.62617545598229  -12.59325908771334   -2.99351800348397
C           3.86118347851819  -14.43759613602213   -5.93517865675691
N           4.87529752417104  -14.89082163090048   -6.21746650926888
C          -0.74180607941337  -13.80710338652619   -6.82182818523259
C          -1.93014444203012  -13.13532226956413   -6.43759717189555
C          -2.02005433943318  -12.34968543395957   -5.22935482219730
N          -3.20143202256818  -11.74849549606049   -5.11771532700261
S          -4.13150335780113  -12.15969143319803   -6.35502353130021
N          -3.06847974085300  -13.09927833195600   -7.12101683662742
C          -0.57095442794891  -14.64657957365195   -7.92740269534731
C          -1.43962523868031  -15.06005261186785   -8.91793342947946
C          -1.03548079522219  -15.96294938316378   -9.93701548078421
C          -2.00561496009176  -16.27421362285915  -10.83854397850889
C          -3.23150081526904  -15.62348135345180  -10.57647955508453
S          -3.10787763504973  -14.61104254406325   -9.14799731157718
C          -4.40458587777164  -15.71078291846814  -11.29970486168685
C          -4.64037472886915  -16.48541230565688  -12.47070497467885
C          -5.89032895773543  -16.36760813459121  -12.97167431389499
C          -6.74137112037277  -15.48375711461269  -12.22779447941022
S          -5.83747144234388  -14.82444243612133  -10.85293678277311
C          -8.01858874407133  -15.16697178568177  -12.48252290628114
H         -12.32390743062163   -9.14490491363548   11.17765792036535
H         -13.72522888321347  -11.88519553531290    7.29232848203755
H         -10.43087908676090   -8.27179395606232    9.90941222373950
H         -11.79311499809164  -11.01600247012572    5.97341176664066
H          -6.42404084239103   -7.90900874054415    6.25290737977364
H          -8.93208126516776   -6.98993069120005    3.44823953778583
H          -9.43252599207218   -8.64903089461146    3.17294961923722
H          -9.87819148395789   -6.79069937083034    1.31982663490355
H          -9.51147942563924   -8.45898107554543    0.87761244725137
H          -8.20816527101591   -6.92311541673228   -0.50322382612987
H          -7.09659620122336   -5.97692176423304    1.88984961070408
H          -5.97666612519023   -7.94060292671524   -0.03601504715448
H          -7.28250725832673   -9.12255739470618    0.06453348321743
H           0.43288446825470  -15.04834736363225   -8.00854114556684
H          -0.03383048782486  -16.35451490429329   -9.96487920878479
H          -1.86697026970441  -16.94208321345978  -11.66953741480617
H          -3.87084548299266  -17.10279898857513  -12.89823394466535
H          -6.25424943070156  -16.87362721120697  -13.84794416662346
H          -8.53137690298250  -15.58881792214319  -13.32901413396223
H          -8.56824710672340  -14.48817709665976  -11.85640018127914
