99
 SCF done       -212.422606935060          0.000763785982
C         -11.17977353965690    4.63483603113928    4.30350362668709
C         -11.07258639957626    5.88770834403043    3.76605200054994
F         -11.55666359128124    6.94715335842550    4.42689097769888
C         -10.46319104805723    6.07791814968748    2.51044893529820
F         -10.39552697268168    7.31586207226343    1.99668825231608
C          -9.96511350716258    5.01597278408676    1.80831788957451
C         -10.07568786098498    3.71327845157383    2.32988470400375
C         -10.69134346353352    3.51682504767160    3.59965423150740
C         -10.82129951383357    2.21439635307094    4.13608413820325
C         -10.37713842915103    1.14125218005403    3.41239859718415
C          -9.79128744336978    1.34371736654710    2.12843326574010
C          -9.62153818691725    2.59151686490588    1.59992474104345
C          -9.48239278672618    0.03477879279634    1.54065882888583
O          -9.02376517095537   -0.19225460925002    0.42398366134147
C          -9.86915966425756   -0.96561524206717    2.53618175646271
C         -10.39931204761205   -0.29308283193762    3.69903028327207
C         -10.84651975512446   -0.87060036059382    4.85825573963115
C         -10.84552088573993   -2.25997665461128    5.09815092086469
N         -10.86418533509532   -3.38407326859759    5.32978012432490
C         -11.35842726325360   -0.14958299081110    5.95649229896434
N         -11.78421912302957    0.38549484946447    6.87838247910480
C          -9.72967130328808   -2.31216731145093    2.29216032444070
N          -9.28806954100541   -2.73945842089627    1.10576726284178
C          -9.06594313618221   -4.02441785314115    0.72889795887546
S          -9.06798092651511   -5.32853145352336    1.87380338188794
C          -8.66445012157680   -6.42150722880063    0.59006544403627
N          -8.51239108003850   -7.78044387739400    0.91074181025279
O          -8.22758980058414   -8.54228989827161    0.00769297861262
O          -8.67850352418427   -8.08870371201067    2.07602038218275
C          -8.54236101397792   -5.82136607526143   -0.63263414684295
C          -8.77783389821883   -4.43160770171532   -0.58246410494065
C          -8.78621060934993   -3.53227042267233   -1.69655971253277
C          -8.37433504652604   -3.83036236901030   -2.95001836168847
C          -8.44104149129659   -2.87878832989878   -3.99960495669098
S          -7.70679650530821   -3.15457496387266   -5.55515412171835
C          -8.13359570528685   -1.58392293867008   -6.16942539793794
C          -7.79871525927847   -1.16828051236185   -7.55699714200334
C          -8.90070206575129   -1.58184632723780   -8.53652903493903
C          -8.83085872579023   -0.90277373342600   -5.21787104777702
C          -9.01841877724561   -1.61632071347726   -3.98744679632159
N          -9.71508158546531   -0.94856228945899   -3.04839372888718
C         -10.05461550168905    0.23271761493110   -3.44860020126858
S          -9.55626216803348    0.67368008090110   -5.10275258191778
C         -10.78750466509895    1.11796032196309   -2.61375991121788
C         -11.03934536917265    2.47250532018725   -2.76673813359892
C         -10.54592015677906    3.24184714317966   -3.83323263668330
N         -10.12179781863785    3.88630379443141   -4.68132051333471
C         -11.76767744391225    3.00123913733220   -1.66838884433558
C         -12.03280232577726    2.02443186302166   -0.71369497483792
S         -11.44179173089015    0.46679514160100   -1.13557043942799
S         -12.82830542455871    2.60443050005276    0.72018690150682
C         -12.77712718912865    4.20068228817208    0.04296437900426
C         -12.23136025052440    4.27610003329124   -1.23652281786789
C         -12.25250759231960    5.60203243137325   -1.73351898384746
C         -12.02095181730001    5.96380965465353   -3.06871989089179
N         -11.90667029295230    6.29968556613039   -4.15945159223999
C         -12.72782614477726    6.51574855662870   -0.79587652059663
S         -13.27117653938365    5.71990391478672    0.66983189249051
C         -12.88672488127757    7.91972946129743   -0.88865462294536
C         -12.32525033629161    8.84131060303115   -1.71445768953168
C         -13.00915036725303   10.17712644984025   -1.79092073332877
O         -13.85613473756379   10.58493072899640   -1.03482972643862
C         -12.47182688467462   10.82011602361043   -3.00070013723396
C         -12.86919138165710   11.97691034486763   -3.60874565082045
C         -12.23982715515530   12.36952101611861   -4.81092380427196
C         -11.21776105016291   11.54562467933311   -5.36764762176701
C         -10.60908274883898   11.93230560313414   -6.57864807518910
C         -10.99255828646710   13.08499611602657   -7.20478808042223
C         -12.00016370344037   13.90139929700217   -6.65109379180703
C         -12.61156846878462   13.55240288777139   -5.47954632910587
F         -12.35565976195535   15.02482839936963   -7.28660587692890
F         -10.41351142608554   13.45199525889801   -8.35406350893863
C         -10.82147700916546   10.35891022471856   -4.71034936513186
C         -11.43100444976070   10.00962907287564   -3.53517636308980
C         -11.22362759282857    8.86251365220329   -2.65503316849196
C         -10.07685684173922    8.11547976225310   -2.62940979753858
C          -9.81028851594639    7.07952265872553   -1.72010541566027
N          -9.55089957583714    6.21105145174346   -1.01502735587892
C          -8.97703719756290    8.33612104988714   -3.48930955104290
N          -8.04346128383821    8.48755133670935   -4.13745037082972
H         -11.64780535245677    4.50559745898553    5.26674032576626
H          -9.50834791709622    5.18668207066632    0.84557768905566
H         -11.28014903930596    2.10015355806148    5.10461028270921
H          -9.16115176189943    2.72705525973432    0.63249890670796
H          -9.97879424363546   -3.06404801072988    3.03006848096375
H          -9.07848142974484   -1.97801713052821    0.43446693014743
H          -8.30863255027077   -6.37652399129121   -1.52206012771056
H          -9.16391725583072   -2.53436053164086   -1.52572983728286
H          -7.95062388646214   -4.79313122487029   -3.19500152778341
H          -6.85486951033271   -1.62601588526057   -7.85837481041357
H          -7.68419015513151   -0.08189079014398   -7.57718971527080
H          -9.02518064954809   -2.66231981509328   -8.53321477603465
H          -8.64107533552995   -1.26391281444341   -9.54232097623273
H          -9.84568882274672   -1.12061002242647   -8.25944152210529
H         -13.62316320030592    8.33822214602810   -0.20606033929348
H         -13.65637735677426   12.57995633141948   -3.18258080732860
H          -9.83470796989758   11.32013002405338   -7.01370162731479
H         -13.38176638558072   14.18729979944911   -5.07041664729997
H         -10.06041898553039    9.74368557136837   -5.16214643995263
