113
 SCF done       -206.330267216090          0.000993490197
C          -9.63163944791630    0.31354089092417    5.52159718363471
C          -9.02102823916243    1.53655146853293    5.54496490763403
F          -9.29866669739523    2.40930527564002    6.52189259758153
C          -8.09589464739769    1.89524244881996    4.54475128389911
F          -7.51406464598948    3.10149569469141    4.58933284533776
C          -7.79345878737731    1.02540038671061    3.53434971711232
C          -8.40576097097189   -0.24144527629490    3.48342565602342
C          -9.34251404055486   -0.60531544642643    4.49340340167871
C          -9.97189250090907   -1.87176431905721    4.46128895057829
C          -9.67715690020576   -2.74517993536828    3.44885613938314
C          -8.73779304929898   -2.37349370175061    2.44411135445156
C          -8.11102535892254   -1.16084854509326    2.45135378745082
C          -8.60874996950443   -3.47868483881043    1.48213594702755
O          -7.88548964849952   -3.52433743183877    0.49436070269972
C          -9.52354861323110   -4.52637705805955    1.94325958519208
C         -10.17027096796299   -4.09105367011476    3.15715597375968
C         -11.08424949107881   -4.78696946192262    3.90684680998447
C         -11.54342844564696   -6.08180606222209    3.59273361144282
N         -11.94862454492807   -7.13367151312492    3.37442340392618
C         -11.68146513897976   -4.29493425489754    5.08467498762219
N         -12.20265906310891   -3.94758551782039    6.04702724267419
C          -9.67981963671198   -5.70202810273013    1.24630945904165
N          -9.03323599203210   -5.89499144705138    0.09356782665415
C          -9.07128953046091   -7.00922438258929   -0.68452720027218
S          -9.65927860064661   -8.52258587933784   -0.06346106302266
C          -9.22201983112998   -9.28184982206104   -1.55871101873421
N          -9.47851659826530  -10.65424015667289   -1.69499628978438
O          -9.16297736136155  -11.18576879578586   -2.74207151564270
O          -9.99789640465731  -11.21026482480474   -0.74365533885826
C          -8.66159753008838   -8.42457176440367   -2.46675654168544
C          -8.58398252792712   -7.10057917224913   -1.99255244944783
C          -8.07544399925060   -6.01897943576327   -2.80091927149116
C          -8.40241094456610   -4.72211724313728   -2.65751184082254
C          -7.88420960717338   -3.61164659109779   -3.41201785561822
C          -7.10380817067647   -3.64365982536597   -4.55447279732527
F          -6.77574689512232   -4.81894402576003   -5.12499788682143
C          -6.63103766831069   -2.49060813260165   -5.20651593411751
F          -5.94227140142702   -2.72439253872615   -6.34221484796328
C          -6.85935777666901   -1.19380842756358   -4.77149412740443
C          -7.65635216992424   -1.13061450070748   -3.60183087151058
C          -8.16211461533606   -2.30033906804573   -2.96037179164082
N          -8.87176369615249   -1.90420930858794   -1.89545753117026
N          -8.77194692114063   -0.60443533745816   -1.90968528270717
N          -8.07651428691737   -0.07954432273296   -2.87970297418657
C          -9.40981486212974    0.20962602645260   -0.92086884796320
C          -6.37435681504841    0.00114850206014   -5.45551418305991
C          -5.20509864489328   -0.02817950243392   -6.22809659189667
C          -4.80203867219842    1.10266785860107   -6.89870980431050
C          -5.56951392512399    2.27732033415927   -6.82888503922425
C          -6.71345743418128    2.32477043575446   -6.04411498730434
C          -7.10370148220324    1.19243434553973   -5.36036074759555
C          -4.97265936674602    3.27141611980751   -7.69003396432612
C          -3.84244245645745    2.70885550829372   -8.31164846498022
C          -3.62755917150458    1.28290348686628   -7.84061574846168
C          -2.26554572706579    1.22677119357343   -7.11762378414253
C          -1.88809988242408   -0.11463809297187   -6.50246614649169
C          -3.77837455625475    0.24817160480747   -8.97619138106803
C          -2.72192698608461    0.28658123637665  -10.07298432201844
C          -3.08127020793767    3.46130004244444   -9.17143540556254
C          -3.45621167186340    4.78394806878334   -9.46622254122818
C          -4.58260098535634    5.32690204706760   -8.82703970053392
C          -5.33859317265288    4.58646188213027   -7.94482589607780
C          -2.73390815814575    5.59781671655348  -10.40464308379148
C          -1.78981510648102    5.17046458951473  -11.28104508990574
C          -1.14667549248071    6.01592587413781  -12.20753512748890
C          -0.24602095276013    5.58760985868142  -13.14390383733289
C           0.42290946695524    6.37947583245228  -14.11455586178626
C           1.24972644066931    5.68315930817452  -14.93600429517380
C           1.29102980825492    4.29059682816594  -14.66930115758476
S           0.23862450316773    3.90396730121863  -13.32210387583646
C           2.01517318412770    3.32756589418802  -15.32939606496422
C           2.89104094928499    3.51119245567003  -16.43625915263409
C           3.46456758767791    2.37454650556024  -16.88825136936160
C           3.08614484922350    1.19168527796593  -16.16894935984007
S           1.95333919751322    1.63350638255929  -14.88144314184004
C           3.48909286823660   -0.06695337798197  -16.38947640498402
H         -10.33694446093500    0.05454601941737    6.29573102591886
H          -7.08031548574834    1.31404689449131    2.77805175144428
H         -10.67437900976053   -2.11743850014237    5.24091308313695
H          -7.39305999478754   -0.90867082620861    1.68529087468349
H         -10.33757868572308   -6.49253868426449    1.58446353036174
H          -8.41879579346183   -5.11129128236951   -0.19191608543157
H          -8.34146934643043   -8.74046415479647   -3.44333146353477
H          -7.41102215971830   -6.33082301044210   -3.59256208226712
H          -9.12172404696502   -4.40653102915710   -1.91582357018608
H          -9.42374353619862   -0.33110973219272    0.02396776313934
H         -10.43609853366663    0.43329674587192   -1.21918190733547
H          -8.85411127760203    1.14027113651663   -0.82739191163013
H          -4.62448850041920   -0.93203972112012   -6.29427898746323
H          -7.30138340337583    3.22835178468529   -5.98273629891168
H          -7.99727763401671    1.21099951875160   -4.75831556669143
H          -2.28132987545464    1.98451149056578   -6.32900389500050
H          -1.49367999779916    1.52053544595543   -7.83094757342625
H          -2.56172899975979   -0.37609116506733   -5.69153110114262
H          -0.88149739809817   -0.05124778941963   -6.09346013817402
H          -1.90092525060279   -0.90928246212795   -7.24330946652719
H          -4.76124177692392    0.40301618729325   -9.42987356849382
H          -3.78641740601652   -0.74582363245419   -8.52656212482726
H          -2.78488903198448    1.20654207402633  -10.64699196676175
H          -2.88744849833914   -0.54363075832972  -10.75662569550031
H          -1.71908090186183    0.19043858403934   -9.66563420682749
H          -2.18378398521513    3.05779373011839   -9.61081581851548
H          -4.86071761980230    6.34880291923721   -9.04313809189353
H          -6.19914594707132    5.02157917368744   -7.45866159556542
H          -3.01289363583944    6.64462014095540  -10.43124425644798
H          -1.50868545394914    4.12645739393327  -11.31749459189725
H          -1.38607989399801    7.07144548354415  -12.19139190418369
H           0.26309391050138    7.44218552166613  -14.17001119667460
H           1.82997397502415    6.12493617666796  -15.72623786153001
H           3.06204355988768    4.48564601692307  -16.85876354176458
H           4.15077485788226    2.31723653093146  -17.71452257917593
H           4.17833285312580   -0.29095193720819  -17.18435751359624
H           3.14098859510950   -0.88624085634664  -15.78771503274248
