102
 SCF done       -195.768870342600          0.000280941626
C          -6.59646256413212    2.61682572118578    8.14961997837649
C          -7.40379048362849    3.71051072313641    8.29590062468464
F          -7.70063644643820    4.16928150974391    9.51758129598588
C          -7.93273296719514    4.36774784722098    7.16690620095031
F          -8.72082647776560    5.43662580739569    7.33905206452292
C          -7.64686927282571    3.92199619657227    5.90668214133119
C          -6.81806327007929    2.79828812151010    5.72382692702182
C          -6.28259789654514    2.13265049209151    6.86436434897067
C          -5.44700593847899    1.00219342538285    6.70519169838596
C          -5.15558224058914    0.55244759336796    5.44559665702755
C          -5.69542520335961    1.22515398832036    4.31081008931924
C          -6.50520280956380    2.31778859405413    4.43304807512963
C          -5.23115558684287    0.54999087915441    3.09424975702097
O          -5.48333256542137    0.85055585431565    1.93055475608378
C          -4.39186141351932   -0.56677378361726    3.53970995251998
C          -4.33606015365705   -0.56788427950828    4.98322471159804
C          -3.64912189175481   -1.44204751533229    5.78379290156078
C          -2.86812949652955   -2.50954250406679    5.29509256006482
N          -2.22439536221538   -3.38856664520633    4.93403141626352
C          -3.63511913657106   -1.38270197263546    7.19253591611858
N          -3.58770540775341   -1.38080280514220    8.33923420721300
C          -3.80037886723009   -1.42001743195721    2.63793134411182
N          -3.99594035178156   -1.23414795573050    1.32915771327872
C          -3.51338473236313   -1.97109887427643    0.30104192508026
S          -2.49221057754421   -3.34976205875992    0.55189898065951
C          -2.43617197775129   -3.58695489707774   -1.16496356978352
N          -1.67777151938358   -4.66900646449450   -1.64358911050684
O          -1.63836787613342   -4.84247067785111   -2.84456058992077
O          -1.11689710341925   -5.35031749880902   -0.80541435191607
C          -3.15542100107173   -2.66808048747554   -1.87775152902867
C          -3.78986301601201   -1.71762283427419   -1.05114861970689
C          -4.63214687491035   -0.64362516420215   -1.48781281232728
C          -5.01677703796343   -0.41766502110896   -2.76058521058860
C          -5.91989806748632    0.61911065256386   -3.12340302611429
C          -6.44526934718178    0.83823558438488   -4.39002048196470
C          -6.08521679771700    0.02884886218701   -5.47852156614388
N          -5.76423170642087   -0.66852664083565   -6.33042713378310
C          -7.39178770205483    1.89430903111514   -4.41527067657074
C          -7.54746693305902    2.45327138741463   -3.15039513590500
S          -6.56565712158807    1.73138803139823   -1.93876653683383
S          -8.74252576826872    3.70070580163861   -3.04132794169753
C          -9.05569900026235    3.47137390720715   -4.73287846470913
C          -8.27945658971762    2.50051120918740   -5.34889991071649
C          -8.64674748778963    2.34829678121642   -6.71828059971147
C          -8.03996857831301    1.49623260172279   -7.65770286143503
N          -7.55922994973580    0.84260299624011   -8.46685438170242
C          -9.70795171814531    3.14652786759534   -7.07059572967128
S         -10.22486736404569    4.19146906425188   -5.77212941250488
C         -10.38940903281486    3.23873785897563   -8.36380956905965
C          -9.96278930186145    4.23928777516159   -9.25337538817433
C         -10.65374433616526    4.42454331907922  -10.48796973400188
C         -10.21445899894761    5.43579654572842  -11.37989169942569
C          -9.14979937513780    6.22438447077775  -11.07171251097012
C          -8.46377307299562    6.04213488461164   -9.85345458059183
C          -8.85621994591813    5.08170756526256   -8.97207593541489
C         -11.74983502284080    3.61956387346213  -10.77163930872399
C         -12.17593368807998    2.62285795057662   -9.89932845725609
C         -11.47786624838008    2.40160108798823   -8.66693108852106
C         -11.94081764291828    1.34453714783167   -7.82119160768707
C         -13.04237669555655    0.61343328083282   -8.18089352051625
C         -13.74077930555471    0.85938019954552   -9.37569885537298
C         -13.30762032165934    1.83168391420143  -10.22075197395770
C         -11.24715240745746    0.91373413844677   -6.59340717618057
C         -11.47320324734976    1.29830303939402   -5.29413812763443
C         -10.60099791853597    0.54180816694426   -4.43539759130729
C         -10.38538930219975    0.58263777700437   -3.08389525266951
C          -9.41677381064091   -0.29432537365685   -2.55063535461272
C          -8.95690584617868   -0.47919321588169   -1.25498430287267
C          -7.96733992491975   -1.51295077274288   -1.25517202995262
C          -7.81660410938099   -1.95874202487927   -2.55489200362636
C          -8.70085056274033   -1.21924117722610   -3.40193735052910
C          -8.91629661539087   -1.25921432309622   -4.75624580985796
C          -9.86182632287656   -0.36274070534159   -5.28814945647750
C         -10.27219485265642   -0.13105916903921   -6.59460872021605
C          -7.24853518830768   -2.02422718495546   -0.11409515957585
C          -7.34949378555130   -1.57434206174756    1.13422138423370
H          -6.19995352184683    2.12588972659527    9.02459953382534
H          -8.05915427274563    4.43651273471082    5.05283888121945
H          -5.05827384623025    0.52145801092193    7.58814969344304
H          -6.90010749538836    2.80955548885770    3.55702307877552
H          -3.17564632980957   -2.25072860096470    2.94037453165062
H          -4.61835749336344   -0.43045987560984    1.11761443078841
H          -3.20947842813906   -2.68999869414967   -2.95064575648714
H          -5.01529671204578    0.02191667633134   -0.72546600866090
H          -4.67971315932611   -1.04397714081273   -3.57444249734925
H         -10.74749328288225    5.56148627208933  -12.31108020832901
H          -8.81844302228073    6.99287537675470  -11.75388576905939
H          -7.61742100480710    6.67313808731761   -9.62623719644045
H          -8.31488273128966    4.94769065246587   -8.04688219907179
H         -12.29252723234548    3.77373252066912  -11.69370496097647
H         -13.37488985077380   -0.18339210889404   -7.53083592851517
H         -14.60541890142138    0.25911730264082   -9.61550011311304
H         -13.81398360886254    2.02318708065925  -11.15527578207709
H         -12.17525838618806    2.04161696818626   -4.96200909481584
H         -10.92638013849954    1.26086410085042   -2.43803032785049
H          -9.28981333922922    0.06108576151370   -0.38767301499542
H          -7.15135422609957   -2.73410365172671   -2.88842654638828
H          -8.37910945088265   -1.93626999375520   -5.40441723119272
H          -9.92172602833909   -0.63998817417231   -7.47403933182764
H          -6.58623643127791   -2.85398612311430   -0.33236650796795
H          -7.99095871939477   -0.75233523870400    1.39913555153220
H          -6.79716385161240   -2.02350916453079    1.94262736508942
