101
 SCF done       -205.442795830958          0.000690987943
C         -17.09258288454611   -4.44182134762457   -3.12647678617315
C         -17.47509318947082   -4.27426212454390   -4.42726814882655
F         -18.68163701301845   -3.77010602320620   -4.71505813658215
C         -16.60835784205803   -4.62831932945560   -5.48186914273571
F         -17.01074163693466   -4.45260074525197   -6.74704281188683
C         -15.37087432648473   -5.14550737896472   -5.22016468751516
C         -14.94731402251554   -5.33125549907919   -3.88955546108797
C         -15.82206951028988   -4.97302538982183   -2.82240740953262
C         -15.41974980196259   -5.15120271473797   -1.48040699978390
C         -14.17795308583065   -5.66912250176190   -1.21089280356762
C         -13.31114439761177   -6.02030112670449   -2.28235890562157
C         -13.67581481761944   -5.86657504719191   -3.58909167596156
C         -12.04875349268752   -6.56850366194782   -1.74370099284451
O         -11.18033333890534   -7.11845491991127   -2.37303816492758
C         -12.15652131875743   -6.41581306358879   -0.25785049755977
C         -13.50807407322926   -5.95780359210194    0.05253577255275
C         -14.06018835112861   -5.80722149378842    1.29450689799910
C         -13.42517192738640   -6.09842739685141    2.52190685485843
N         -12.98686034376384   -6.31147410624235    3.56119237841808
C         -15.37594653813726   -5.34732031891716    1.52592165320157
N         -16.43336420772898   -4.98264632149591    1.78133220481969
C         -11.18228519393371   -6.70081668757888    0.63355830467013
C          -9.80119008354784   -6.98457768708020    0.31835936431736
N          -9.19575434579684   -6.43456967254323   -0.75146295662251
C          -7.97099950293012   -6.80576183916960   -0.85309161364826
C          -7.06605053466594   -7.14903572174859   -1.81657644746155
C          -9.05391013519459   -7.86127825170888    1.08817916540793
S          -7.34448471941991   -7.63855290400278    0.74722780731792
N          -6.37720236308466   -8.64571285950636   -0.12761446891790
C          -6.19045233279659   -8.16309498541679   -1.36017823338927
C          -5.12860182570047   -8.68147052525114   -2.16575561900822
C          -4.35423171744490   -9.72842786435770   -1.77769516028178
C          -3.22133106802754  -10.17693944184618   -2.47921812523745
C          -2.43035923497548  -11.21764478488514   -2.06960926434938
C          -1.22974288483263  -11.66960658775046   -2.67549203651718
C          -0.64081421840255  -12.71783099687943   -2.04241229817225
C          -1.34748394025583  -13.16385764037418   -0.89927605509152
S          -2.78601239069082  -12.19552712815808   -0.65363990426025
C          -0.99424477082462  -14.18641069643899   -0.04664020694635
C           0.14503217361211  -15.02478032911869   -0.12424242200864
C           0.29831280638314  -15.85542372880793    0.93821203826252
C          -0.71985178778146  -15.73058999173478    1.92397510992757
S          -1.92895791831762  -14.56094123894144    1.39106526011624
C          -0.73880204324299  -16.33305083597648    3.14383441938412
N          -1.78510885381196  -16.30118260588851    4.01515319413128
C          -1.68438890433861  -16.58933127500317    5.34147189118805
S          -3.04979090561192  -17.30183322844866    6.15071347563911
C          -2.06468623716939  -17.55807360384238    7.55844043201628
N          -2.66913896576727  -18.13917993474738    8.68033359325459
O          -1.97853789453742  -18.31859555870714    9.66561058794260
O          -3.84913629346981  -18.42642077328352    8.57683504366954
C          -0.77593818482769  -17.12715904182670    7.40657135762450
C          -0.54016786924484  -16.52410117047951    6.15370106398451
C           0.69649038792010  -15.82967955740867    5.87964942115261
C           0.81692361442967  -14.68064153588473    5.17178485082507
C          -0.31235355953520  -13.94297385376145    4.73079521555965
C          -0.50108974072214  -12.98755670976941    3.77968013483284
C          -1.83893718843080  -12.32961188647569    3.76427944700711
O          -2.78373564429410  -12.63406007465188    4.45862064161137
C          -1.76238369974856  -11.27616392347579    2.74157476283969
C          -2.69218171206475  -10.33417754736614    2.40916466059158
C          -2.39263885759790   -9.40562187718169    1.38853741261282
C          -1.13493361272581   -9.48632424809502    0.72360889609845
C          -0.84965628017161   -8.57525628025498   -0.31256711419430
C          -1.76265173613835   -7.61840832011147   -0.65517652804295
C          -2.99302482979441   -7.52201504805778    0.02362030620600
C          -3.30880566540495   -8.40191677332098    1.01968277040683
F          -3.85415486204777   -6.55440958637184   -0.32343390140270
F          -1.49606877859926   -6.76178287601982   -1.65212444218835
C          -0.19099988041304  -10.47131298555930    1.09464839089883
C          -0.49881514971511  -11.35850360198131    2.09208393258095
C           0.26479560548086  -12.46894611079382    2.66638088155258
C           1.40222673217857  -12.98565230665256    2.10302583777426
C           2.12671991089914  -14.11097183505550    2.54201614418134
N           2.77420497476423  -15.02408681172929    2.79854863058043
C           1.94462216544589  -12.52900127265614    0.88266371979877
N           2.41138614479304  -12.24002278162632   -0.12575327742149
H         -17.76810511797349   -4.16628558746219   -2.33170837281950
H         -14.71966309011790   -5.41198366717903   -6.03783378506106
H         -16.10604654223403   -4.87204251888015   -0.69764365948994
H         -12.99902835640951   -6.14714686194044   -4.38168812205218
H         -11.40981932202416   -6.71197368292678    1.69121414444556
H          -7.09470076795813   -6.79368037746180   -2.82801873875691
H          -9.35442178688603   -8.26316778268890    2.03581656619980
H          -4.93438728428749   -8.17111584000398   -3.09853193636462
H          -4.60687383007712  -10.23190824273639   -0.85316669602276
H          -2.93330531234962   -9.65446505151120   -3.38208706848615
H          -0.83996637404717  -11.19482638689729   -3.55828832590564
H           0.28176588249426  -13.17354755812013   -2.35182193952433
H           0.82854211885993  -14.96953921428639   -0.95138904049274
H           1.11153014773481  -16.54621651693151    1.06482696887607
H           0.12035206810376  -16.90786736851404    3.45887500821719
H          -2.68554685356626  -16.00141014199275    3.65980381154481
H          -0.04510052568833  -17.19798186863290    8.19205767547378
H           1.57959567336793  -16.26396316870679    6.32700473029679
H           1.80364136260532  -14.28356191288483    4.99391608791152
H          -1.21845590914028  -14.12257964388530    5.30803126773695
H          -3.64382979494068  -10.29828664063578    2.91611219416026
H           0.08930172967405   -8.63263834272193   -0.84082012360273
H          -4.26958095740732   -8.33482446706323    1.50467479387409
H           0.75689276486621  -10.48938565706841    0.58173333180929
