103
 SCF done       -195.536060198546          0.000991785882
C         -12.26481772363824   -7.57763406637944  -13.20046798128939
C         -12.85151259197234   -8.46868969019481  -14.05568866621436
F         -13.70509447424187   -8.03854423814863  -14.99308123949317
C         -12.56714697168077   -9.84548697256123  -13.96273518266988
F         -13.15576174973658  -10.69603644478545  -14.81325758465833
C         -11.69978376290803  -10.31293028655488  -13.01449239463982
C         -11.08093387331841   -9.42026539229584  -12.11904146041203
C         -11.36637256442895   -8.02731928354634  -12.21297776421216
C         -10.75415381698790   -7.11151896145026  -11.32558366373575
C          -9.88751788401072   -7.57527126418455  -10.37247550942652
C          -9.61283999342127   -8.97157787371174  -10.28144301575062
C         -10.18456893065134   -9.87788366819492  -11.12655583209120
C          -8.67609201695647   -9.19851677863217   -9.17227775216953
O          -8.21622546010372  -10.26531926815030   -8.78326226749403
C          -8.41940055618105   -7.88081747669556   -8.58244421314872
C          -9.11541826108699   -6.87705453603289   -9.34750198531382
C          -9.02276855350700   -5.51449561376526   -9.19945140905617
C          -9.73453304592852   -4.58155332786915   -9.97938053606562
N         -10.29084350843536   -3.77259440834149  -10.57510301085396
C          -8.16423533230370   -4.87796381425792   -8.28554230097645
N          -7.45527481623364   -4.30882010634069   -7.58186066983469
C          -7.68786455470944   -7.73488975490808   -7.42750239882964
N          -7.09346012646069   -8.79505112363699   -6.86524794974667
C          -6.36400937857382   -8.85524232782764   -5.71465545499799
S          -6.20734903501777  -10.41301439489686   -4.95823921344723
C          -5.31176845608090   -9.68080952131830   -3.67030604391169
N          -4.83915674479989  -10.50637849463452   -2.64015221772059
O          -4.21823313289911   -9.97934718612929   -1.73664978813113
O          -5.09224418092859  -11.69451211817974   -2.73187277871300
C          -5.14742785516349   -8.33018592862109   -3.82117715231334
C          -5.73388020043729   -7.83087787669040   -5.00089495244937
C          -5.62040599272591   -6.45637916765046   -5.43165453674925
C          -5.46625472604287   -5.40888972294540   -4.60384092838336
C          -5.36963060043389   -4.06490575795201   -5.09631074387444
C          -5.24353124214127   -2.96354057795469   -4.34189795047884
C          -5.13661720825274   -2.97384203107266   -2.84557469416713
C          -5.20329041610253   -1.60880704565333   -4.98957328300292
N          -3.89923379170511   -1.00571428469811   -4.79520788298054
C          -3.54044835532856    0.20745229767080   -5.23135007301790
C          -4.35965347218965    1.08711500619695   -5.88604050046315
C          -4.00156903020944    2.36467551121100   -6.34401453068052
C          -2.80603159205374    3.04503401938360   -6.27153852884920
C          -2.58935536652229    4.34441201916916   -6.78602449587478
C          -1.32712985940069    4.83007702147379   -6.60318145845066
C          -0.46822302976381    3.93951691537861   -5.92968294574544
S          -1.31295766949982    2.46707400470377   -5.53986076726752
C           0.86224682607486    4.12301080650747   -5.57977572087404
C           1.67653505217682    5.24472492965600   -5.81649616888209
C           2.94861025725475    5.11850171858750   -5.32961175578108
C           3.19708317393667    3.88920101888951   -4.68691263645955
S           1.76586498888724    2.89399971833253   -4.72213170462205
C           4.34304019674013    3.43561587064599   -4.05047935271893
C           5.54525616333724    4.12345637755756   -4.00986873953906
C           6.68989934132470    3.74607545280833   -3.32857448736798
C           7.99980119459591    4.27729842987682   -3.75147915429074
O           8.20461464881901    5.18551233917491   -4.53208730119659
C           9.00447039836807    3.43647800913032   -3.06519938485791
C          10.36267278009884    3.44583379365990   -3.18264212001339
C          11.12556500893491    2.50895132471213   -2.44716054839314
C          10.45720449009635    1.57530948138426   -1.60457713875944
C          11.22062679385463    0.63775833680066   -0.88311072583932
C          12.58236282918098    0.64594690474781   -1.00323046970944
C          13.25870206409839    1.55732626692168   -1.82349058246152
C          12.53154406914441    2.47348127800930   -2.53254779894817
F          13.31461970036263   -0.25126285044580   -0.31284130296688
C           9.04578724434470    1.59691986783187   -1.49488825824652
C           8.33169254040944    2.51721470981343   -2.21015285402089
C           6.89479583755331    2.79277656208113   -2.27933044543297
C           5.96879221868646    2.36248620740402   -1.35275730123557
C           4.66377350826294    2.87708735653475   -1.23740804401137
N           3.60748957877636    3.29365419993814   -1.05938304272003
C           6.25215784085019    1.43907985017708   -0.33043538940736
N           6.41544789723162    0.67083943847456    0.50889243570475
H         -12.49300833381356   -6.52672257391265  -13.28637965221022
H         -11.49315595098462  -11.37009061083264  -12.95606837055265
H         -10.99187333604152   -6.06423143389359  -11.42017511603784
H          -9.95763908329894  -10.92956584877503  -11.04009981019674
H          -7.60909804402673   -6.78283483729826   -6.92351717076010
H          -7.30592760270334   -9.68457907986413   -7.34994538305168
H          -4.59110803764835   -7.73757506515865   -3.11853719842808
H          -5.64380359266974   -6.27529417794652   -6.49750906266538
H          -5.45765314665090   -5.56109303019208   -3.53489983841080
H          -5.44465090869103   -3.95722876205618   -6.16905624273919
H          -6.08492959977006   -3.27483175418614   -2.40151893543252
H          -4.88901698223821   -1.98536136427992   -2.46857000345764
H          -4.37688990742907   -3.67482024685941   -2.50625002075099
H          -5.96496116606248   -0.96145646234151   -4.53602824695598
H          -5.42038814731340   -1.69191811491015   -6.06038728042325
H          -3.19709398231282   -1.59066475263090   -4.37119086293429
H          -2.51659695865220    0.47372725648677   -5.01851393744705
H          -5.37903787189226    0.79026939035278   -6.08315257300672
H          -4.79147999776707    2.91428268436820   -6.84207288391468
H          -3.37724976301762    4.88688896889102   -7.27869863797029
H          -0.99810504831466    5.79882415518230   -6.93209439265419
H           1.31326156507102    6.11587614202928   -6.33177026123114
H           3.70098085334559    5.88120189059148   -5.41362311181976
H           4.27968839153429    2.46511119099957   -3.57943657694426
H           5.66600085787595    4.99646160423908   -4.64037648871558
H          10.85322042213669    4.15789959416972   -3.82942666993454
H          10.73303746500039   -0.07713768856509   -0.23876123231124
H          14.33505172687619    1.51723038608594   -1.87839713160262
H          13.03022658293633    3.18623168177526   -3.17229810041423
H           8.56711485809285    0.87558745098328   -0.85176910454047
