102
 SCF done       -221.269001334978          0.000748612392
C           1.93739176064400   -1.41807566715503    1.97609487557847
C           2.41027366950068   -0.57483559779985    2.94161142346193
F           3.52236950670678    0.13882200571187    2.71974408328708
C           1.75016163497451   -0.45943477482138    4.18060710829036
F           2.23612594141433    0.37539396397941    5.10341152505210
C           0.61896852105816   -1.18461554188634    4.43412727678479
C           0.10247430508949   -2.05916066469315    3.45918018075227
C           0.77541739080903   -2.18055749975073    2.20865321501580
C           0.28370977529371   -3.06095020878241    1.21895347189705
C          -0.84543878494238   -3.79305623695761    1.46967370055750
C          -1.51823765559897   -3.66422793074468    2.71939006031920
C          -1.06452359624441   -2.82181092734271    3.69475794712160
C          -2.68962269307357   -4.56412754090446    2.73279307542248
O          -3.53235804024147   -4.66613103745402    3.60487610245808
C          -2.59482816074199   -5.34928923858010    1.49250229466235
C          -1.56749952727325   -4.76164279671301    0.65400198165690
C          -1.40746923615518   -4.97933227788214   -0.68696118736928
C          -2.26816698776696   -5.79320053589897   -1.45485826371482
N          -2.97979571045624   -6.39504708709648   -2.12364702670597
C          -0.37868679012300   -4.38395943861880   -1.44461338261726
N           0.46576781778442   -3.92734637968733   -2.07348543554851
C          -3.20709694820235   -6.54834991653945    1.26446828814876
C          -4.30173386179292   -7.12518670384433    1.93813290689483
C          -4.79707194906441   -8.39661453939618    1.60418495473556
C          -4.01993538486106   -9.29861255555508    0.85970232346354
N          -3.30638976215708  -10.03285008539237    0.34210812494465
C          -6.04696587821984   -8.66572601963736    2.19257132655643
C          -6.45356463965419   -7.60181609897925    3.00713276764633
S          -5.32920483451892   -6.30250962043866    3.09384886987241
S          -7.99928058353710   -7.82615859163438    3.75568992140304
C          -8.13256364839469   -9.35852145691634    2.93814280119523
C          -7.03915764783138   -9.68881490242203    2.14973037322201
C          -7.23511269845439  -10.92510557995390    1.48342770630022
C          -6.37226467423093  -11.42735098402445    0.49447341178349
N          -5.70245631116345  -11.82267035990477   -0.34874326764838
C          -8.45317773300825  -11.52162687771289    1.79342671193917
S          -9.39967060752247  -10.52674269802304    2.88048562952537
C          -8.91102071062932  -12.76672534314897    1.25244074766310
C          -8.04348617701344  -13.81210706686372    1.11980184532088
C          -8.03297761167133  -14.90426528806493    0.20341632799286
C          -6.82109799674825  -15.51471681824862    0.09374749510601
C          -5.82901550808063  -14.98914756423625    0.96066782592173
S          -6.56333074715567  -13.85166269968368    2.07216366523775
C          -4.45346081119836  -15.01499913750165    0.93837120409825
C          -3.50471043935653  -15.55224596676061    0.03352800414498
C          -2.26241240536869  -15.01042239638500    0.16217401539948
C          -2.15655908044020  -14.00795548323532    1.17013033512839
S          -3.65439069696611  -13.93478587979985    2.06198446909874
C          -1.14582021577500  -13.10692908668198    1.37618259587946
C          -1.23882259268566  -11.96507110834133    2.19697671021701
C          -0.29067240181420  -10.93998200120845    2.29766989487224
C           0.93969675069265  -10.99723751703072    1.62998816435432
N           1.94293646144765  -11.07214544252506    1.07771525092273
C          -0.73296744352704   -9.85812190151680    3.09987878583865
C          -2.00516089945543  -10.09966665068734    3.60642127309174
S          -2.67229664182975  -11.60989004940069    3.14432797702266
S          -2.70114616811433   -8.80319138644901    4.52706463994451
C          -1.25860710362036   -7.90062032892614    4.23602980931281
C          -0.28069406250662   -8.56178200690010    3.48901962141648
C           0.85095767511622   -7.73690047665563    3.28971834642609
C           2.08182878160706   -8.13292691584575    2.74278382761916
N           3.12567759503109   -8.38787468024720    2.34230230196877
C           0.68897225559236   -6.46184003730483    3.83319631190805
S          -0.82670535678345   -6.31252574219649    4.70635509085885
C           1.51522755265752   -5.31837064757452    3.82616373038302
C           2.50888868910468   -4.86250349844292    3.01430448098181
C           3.27798469729215   -3.69362018711721    3.54353484504823
O           3.00761571083151   -3.06692702391291    4.54469157936582
C           4.40613075070869   -3.50418625302308    2.62571748118598
C           5.43033343472475   -2.60306050699814    2.69895578704799
C           6.42623043426540   -2.61678939779130    1.69817402002945
C           6.35016287564268   -3.58162947701337    0.65127663349413
C           7.35616250753287   -3.60160670323879   -0.33543699985471
C           8.38399606641043   -2.70161161293233   -0.28845922006071
C           8.45326028774863   -1.74285239197247    0.74332235426456
C           7.49540524692964   -1.70030167052187    1.71748957574705
F           9.47052294044971   -0.87296383028168    0.76074053153583
F           9.33839018829753   -2.72032546266679   -1.22611099380966
C           5.27395004298226   -4.49746856325393    0.59951546144970
C           4.30418582154505   -4.44959373864531    1.56528619775354
C           3.06805773644796   -5.21464721443949    1.72756822648642
C           2.48222343989911   -5.94700091030447    0.72705441697639
C           1.18363930306638   -6.46822487256949    0.79793079269099
N           0.10310253970988   -6.86018677543620    0.82663531332851
C           3.06781093834011   -6.18554827597177   -0.53688911146298
N           3.49003195532464   -6.40452251853171   -1.57976881123893
H           2.45685439794352   -1.49706344989597    1.03321318585993
H           0.13002892200034   -1.08885068999419    5.39077769310065
H           0.81502567715279   -3.13658402946734    0.28341962337263
H          -1.58733348232386   -2.73819502161485    4.63562503291697
H          -2.82341267981926   -7.15098558641986    0.44769128895297
H          -9.92532629997019  -12.83722561704946    0.88743034732516
H          -8.88141887365506  -15.11923191433010   -0.42181785723061
H          -6.59468929431621  -16.28729316979600   -0.61988644209820
H          -3.77925943310520  -16.27184689726814   -0.71717729161978
H          -1.43035923673027  -15.24100185128241   -0.47947288318666
H          -0.23452732975277  -13.20895139663662    0.80163550437172
H           1.32205556650217   -4.64122545552720    4.65790570293015
H           5.47881639475642   -1.88794107222037    3.50582367470684
H           7.31553672274263   -4.32514663224237   -1.13457382351462
H           7.55979665474214   -0.96020164335591    2.49952357152186
H           5.24849870704435   -5.21970266027302   -0.19990603179969
