103
 SCF done       -199.775164215500          0.000751742838
C          -3.40962843643738   -3.52031642384537   -7.30856659085520
C          -2.49199899483767   -3.35380644079043   -8.30804243290016
F          -2.89888799567250   -3.23533402156010   -9.57955614138082
C          -1.11403640333749   -3.30497802994049   -8.01734174911426
F          -0.24056132641059   -3.14224471787862   -9.01990778201644
C          -0.67209508473889   -3.42074143895237   -6.72874215367690
C          -1.59262579943453   -3.59196904989146   -5.67733881943895
C          -2.98678445023837   -3.64393291138977   -5.97016621466590
C          -3.92726973174804   -3.83015548208734   -4.92959457754125
C          -3.48028517998032   -3.95881246590970   -3.64266957699711
C          -2.08642851833659   -3.90292967837411   -3.36005962032956
C          -1.15412996236008   -3.72449898311980   -4.34006305224096
C          -1.87591997215040   -4.09646120236026   -1.91760999575238
O          -0.81223684721787   -4.08204821602422   -1.32939902479606
C          -3.20962293138229   -4.38380916966363   -1.35356688689887
C          -4.19008094927249   -4.16188448913899   -2.38675262885874
C          -5.52505934269313   -3.93231414226034   -2.17032923422193
C          -6.41907813114291   -3.50248971666683   -3.16792903535046
N          -7.18339078720385   -3.10411877357570   -3.92696179912035
C          -6.10602848711685   -3.93956164216493   -0.88801772971596
N          -6.60891986441261   -3.87643291003976    0.14290712320327
C          -3.43304664066006   -4.87485750050186   -0.09342688575359
N          -2.59238385182649   -4.72146558153308    0.95377919215919
C          -1.67061128189013   -3.71259606179360    1.06481893547109
S          -0.13654173502998   -3.99086388785650    1.81155229072225
C           0.34392094972141   -2.38287017831087    1.38284911796230
N           1.65050041972665   -1.99945873964773    1.68902405402039
O           2.00147505096183   -0.87217563501983    1.39127199937317
O           2.35477799905701   -2.84320017680640    2.22366179172375
C          -0.63620189378424   -1.67228970318202    0.73757065321089
C          -1.81395491810524   -2.41581053539396    0.56812762884362
C          -3.01616498409257   -1.94163360979469   -0.09910175975682
C          -2.95819452361625   -1.26408378304182   -1.25183981557887
C          -4.05482918703269   -0.81922566091583   -2.08434526327417
C          -5.23081955769965   -0.29476983525479   -1.72294266088006
C          -5.66723677268200   -0.08962263397104   -0.30954326601669
C          -6.20998624519177    0.16786207325200   -2.78379671096771
N          -6.50454451117851    1.58725143678152   -2.71183244486305
C          -5.60976014547737    2.56950881377828   -2.93632770351114
C          -4.28950034412038    2.35815758941684   -3.19620255671144
C          -3.29256038224458    3.33730057990271   -3.32390227456018
C          -1.96169814917439    2.98971856021984   -3.34449922124405
C          -0.80559472679471    3.80029109003051   -3.36423167323626
C           0.36865060102870    3.11745828960593   -3.20564928008758
C           0.20330808347361    1.72571647772716   -3.05090427626306
S          -1.47974207294186    1.30102587599378   -3.18996117335300
C           1.12332081696773    0.73737520675585   -2.73186289638734
C           2.50305834408705    0.81767990871356   -2.47706511004690
C           3.05962785189884   -0.35565851707819   -2.04083355442643
C           2.14171515593715   -1.41713810964562   -1.92180976796170
S           0.56212815778566   -0.90038585563012   -2.45131666879173
C           2.26092189225817   -2.69673968674039   -1.40502429818201
C           3.40415385973926   -3.24101911151954   -0.84062943911042
C           3.44846977471471   -4.41005851437472   -0.09976544245361
C           4.55598487502832   -4.61759214829867    0.85614129512368
O           5.64446360305572   -4.08672964987388    0.84748740924822
C           4.03224097240228   -5.58968472360988    1.84434610072334
C           4.60607128546248   -6.04030661621716    2.99470410174522
C           3.88766907499029   -6.94250251555056    3.81410915998129
C           2.58611655892130   -7.36198706185159    3.41696961587764
C           1.87492875333062   -8.25654549833816    4.24024921364994
C           2.42933155296353   -8.71541782958296    5.40214341419262
C           3.71590155066387   -8.30176229435944    5.79310616311340
C           4.43127558643073   -7.43370265236821    5.01590633154117
F           4.23730903146713   -8.76823002310488    6.93976641784327
F           1.74493001916525   -9.56836361172495    6.18294682028761
C           2.02245136644186   -6.88494340661624    2.21061778158076
C           2.73469338323245   -6.00989961208589    1.43819444021138
C           2.42647795427374   -5.37885182884053    0.15550290444043
C           1.40751077355205   -5.76762369691778   -0.69504586243577
C           1.39038726894001   -5.45664157776482   -2.06633058278015
N           1.38746514153107   -5.29225949843045   -3.20431436841375
C           0.28585603309922   -6.49787895876700   -0.28211057619114
N          -0.70273002160691   -6.99332398746272    0.04157479261175
H          -4.46026265325133   -3.55846177909777   -7.55103578717991
H           0.38502450215934   -3.39056675534492   -6.51704286550207
H          -4.97584365313419   -3.88620719226947   -5.17769947111459
H          -0.10085971709821   -3.71440573777517   -4.10383006883047
H          -4.32586848140796   -5.45029572495705    0.11967500952060
H          -2.55032589762581   -5.46487469567512    1.64066454549911
H          -0.50547042490194   -0.65630014316676    0.41309628725213
H          -3.96106223829858   -2.25023838162399    0.32803866843555
H          -1.98226607911115   -1.08320220234847   -1.68361520069768
H          -3.82747547054624   -0.88795807693882   -3.14355986254439
H          -4.81000025803611   -0.02514946271864    0.35515439983953
H          -6.29142563202584   -0.92326072681741    0.01531688949648
H          -6.25473532423655    0.82212616804845   -0.22137995486097
H          -7.15295042079662   -0.36924075823844   -2.65515859624119
H          -5.81688835901690   -0.07464626947725   -3.77734520638456
H          -7.45595617348731    1.84997800834040   -2.51799433627217
H          -6.00263424912674    3.57540007179540   -2.86554029902068
H          -3.94152539999177    1.34006149973947   -3.23891222330600
H          -3.55745077308796    4.38521307206705   -3.35127078924032
H          -0.87160425133966    4.86914407528537   -3.47016038635575
H           1.33838683857154    3.58071062807016   -3.17094770512150
H           3.05070221635205    1.73565575080217   -2.59694932816178
H           4.09435633189689   -0.46673276858462   -1.77332661578095
H           1.34119048772413   -3.26261475417201   -1.37194914148241
H           4.31716530591967   -2.65874559984981   -0.83432759370793
H           5.59297047520108   -5.71168158792122    3.28216043219876
H           0.88855046176899   -8.58737117095497    3.95440735623674
H           5.41617240583501   -7.12528271652890    5.32977305435639
H           1.03516383809145   -7.21862824931651    1.93199063806971
