99
 SCF done       -207.772230273014          0.000556622353
C          -9.10818705089887  -10.96401585868812   -2.31838381668675
C         -10.41518612135561  -10.67683092435234   -2.59768362644874
F         -11.12050204683320  -11.46417627761637   -3.41891548331691
C         -11.03484002417879   -9.54433277089821   -2.03249375987887
F         -12.30904779548546   -9.26360248164479   -2.34582695953549
C         -10.34329733273232   -8.72064620340539   -1.18883121636657
C          -8.99315986137258   -8.98749030346942   -0.88790385244126
C          -8.36098476740892  -10.12513142425042   -1.46736502368524
C          -6.99560827511462  -10.38709553248946   -1.21673527174779
C          -6.28210496987109   -9.52443577943105   -0.42873366994722
C          -6.92272386497001   -8.39372073574977    0.14915017426996
C          -8.24490807152470   -8.12577390944482   -0.05843244981571
C          -5.92935211753398   -7.57864077747311    0.86314108992313
O          -6.13196172515542   -6.52014671282119    1.43320970222933
C          -4.63059551775900   -8.23103174621544    0.61996799132333
C          -4.86670626616353   -9.48158481417314   -0.08319347219363
C          -3.94589597871039  -10.45924603822187   -0.34089070766070
C          -2.58910685015422  -10.39362244155292    0.04132796099197
N          -1.47802100645460  -10.37796142900319    0.32963497261215
C          -4.24780205818653  -11.67170759818205   -0.99794860047815
N          -4.43512384816610  -12.67450245493408   -1.52250239008637
C          -3.41387387225026   -7.63208739489317    0.77594157124724
N          -3.15426929569102   -6.46900666255118    1.40919356187690
C          -3.82837234395204   -5.90777141452320    2.47869900391239
S          -4.18568809137641   -6.85337392623530    3.88738121160977
C          -4.64409514441326   -5.40707223142205    4.71441900744314
N          -5.12363761860037   -5.52237927481256    6.03088115971293
O          -5.43119427464239   -4.49964718508246    6.60864024679957
O          -5.19522723745733   -6.64681644693228    6.48886473399532
C          -4.51756812961394   -4.27384313196750    3.95510217602532
C          -4.06109624408813   -4.55158120093522    2.65395094559183
C          -4.08536649801451   -3.56902751906703    1.57767041603043
C          -4.67446875601079   -3.86205896008834    0.41419730623073
C          -4.94807444765216   -2.89926448652708   -0.64544243831637
C          -6.17381092707815   -2.68304670012548   -1.21831563213344
O          -7.40017856291297   -3.22452956586015   -1.08392552391014
C          -7.58648653718337   -4.43113923043642   -0.37534361353038
S          -6.19030399270068   -1.31650866597727   -2.30429150100315
C          -4.49063731022025   -1.06363436436747   -2.04531734971820
O          -3.76959801228029   -0.09482836456694   -2.62898005253180
C          -4.43987222336224    0.73150674223002   -3.56146570448262
C          -3.97364387883435   -1.96867085417951   -1.15363391506351
N          -2.62159835964529   -1.90076441535764   -0.81528682818636
C          -1.70514838271730   -2.84679839640148   -0.54417914699821
S          -0.28073966590932   -2.27383436382750    0.28694124879884
C           0.31787551729018   -3.90046806345355    0.40975753606622
N           1.55644335550557   -4.10472755093986    1.03340603703489
O           1.94149649389246   -5.25181822288053    1.15115877880402
O           2.14259577175795   -3.10892723549396    1.41719823608681
C          -0.52089117403558   -4.81521564417576   -0.15346947394571
C          -1.67800755332919   -4.24535644275634   -0.74171157142139
C          -2.58168636473218   -5.08799068182639   -1.45226010913310
C          -3.54898204608199   -4.74866997642343   -2.34261412704017
C          -4.49870997921286   -5.70677329329687   -2.75162757443583
C          -5.67070603064290   -5.50572860936083   -3.42328429625874
C          -6.74925518301077   -6.51425841813404   -3.27003250111012
O          -6.63676511641502   -7.62570303323140   -2.79250972818769
C          -7.98244272143694   -5.84220573357249   -3.71488576851656
C          -9.26798573244423   -6.30119105068771   -3.68686987338041
C         -10.30998308451513   -5.45590463930464   -4.12884806653737
C          -9.99547002266736   -4.13998475205299   -4.57901621905591
C         -11.03773774717264   -3.29747209954095   -5.01396216284096
C         -12.33017473481932   -3.74229024945369   -5.00912860500268
C         -12.64008691026621   -5.04473667792753   -4.56604732457000
C         -11.65202832595708   -5.88468435169175   -4.13265874356709
F         -13.91398472755175   -5.44999262811768   -4.57226395690012
F         -13.31766084402516   -2.94228537301915   -5.42680168925066
C          -8.65428925912822   -3.69324224679440   -4.59931599661509
C          -7.65925668455588   -4.53721832929936   -4.18561557293180
C          -6.20881995336424   -4.36634791087317   -4.13159144864313
C          -5.50782275411515   -3.39218762201672   -4.79235480343912
C          -4.10458751142096   -3.34238369030703   -4.92573948889665
N          -2.97455613906117   -3.24135999646410   -5.10024220748651
C          -6.10595176112970   -2.31499907291848   -5.47904705258801
N          -6.50934463920872   -1.38723873026922   -6.02186422507590
H          -8.64755698234627  -11.83243923994411   -2.76254614612684
H         -10.83424250969101   -7.85948478734263   -0.76189204094612
H          -6.53903442222278  -11.24394827807666   -1.68488484806895
H          -8.70639475235539   -7.25634086585436    0.38535974352848
H          -2.55097340483208   -8.07430554095339    0.29234546202695
H          -2.28905419769892   -6.00129355959894    1.16268647321306
H          -4.77937204280510   -3.29646018088843    4.31796950734593
H          -3.75795353875991   -2.56680497408999    1.81462716836895
H          -5.05864911043160   -4.86037272612721    0.27783979424841
H          -7.23165290258034   -4.36064461888793    0.65443214080871
H          -7.09129618951736   -5.26733635906504   -0.87648626705647
H          -8.66313109609723   -4.59353853872173   -0.38466953110911
H          -4.82594942174283    0.14653183502563   -4.40043818937826
H          -3.69782752447994    1.44203576507724   -3.91722491535393
H          -5.26827873583134    1.26189532813526   -3.08325804235242
H          -2.26771278236687   -0.95088613552438   -0.81289151554243
H          -0.27273871816008   -5.86211983271137   -0.19983085210185
H          -2.44469161172085   -6.14589034771740   -1.26342873186532
H          -3.64817005505475   -3.73204731604482   -2.67444612719151
H          -4.38515559908359   -6.70803035234960   -2.34455474833539
H          -9.48528707968762   -7.29869126285697   -3.33563596987156
H         -10.81828665030893   -2.29951089319675   -5.35989172245647
H         -11.91041177959162   -6.87775924910156   -3.79980504989052
H          -8.44862767351882   -2.68982131423037   -4.93598606806152
