105
 SCF done       -198.260058402336          0.000840487528
C         -13.62976834433425    6.89392997362932   10.24528780853744
C         -14.13229816634914    7.83317911297712   11.10165347487536
F         -13.64715031289422    9.08538689159039   11.09295940098048
C         -15.16143628575898    7.50423759740673   12.00388347636769
F         -15.63350411897046    8.44593538679253   12.83835398747621
C         -15.68507883137510    6.24155132890117   12.03233099201852
C         -15.19121540235637    5.25103957744562   11.16271183688728
C         -14.13921550506748    5.58069009697987   10.26128916083032
C         -13.61232576063408    4.59617977592632    9.39200874148388
C         -14.13202461646487    3.33123000283439    9.41893093720260
C         -15.20948916543113    3.01926364731612   10.29467555764169
C         -15.72704906350310    3.94151580873947   11.15485855950576
C         -15.63102554392635    1.61838071593617   10.06067108041428
O         -16.52149256286837    1.02592150860346   10.64004146050762
C         -14.76327679251686    1.12123493511904    8.97932280929466
C         -13.80443790634620    2.13318973050611    8.64877595863011
C         -12.71369400826634    2.01488300767509    7.81100404595740
C         -12.34239902402668    0.86303675266505    7.09858088630232
N         -11.93572553060512   -0.02232992306358    6.48488302166928
C         -11.76325723787257    3.02330425891380    7.58792722230236
N         -10.92123178452483    3.77095968499881    7.34742565639053
C         -14.91310747513979   -0.10095986061933    8.34225430695417
C         -15.83336997452252   -1.08663047528553    8.65998299589502
C         -15.97781311808283   -2.22805253464120    7.88037719488828
C         -16.86386056525436   -3.30833462766582    8.05980996454186
C         -16.79907678083800   -4.26178878542294    7.07484670625942
C         -15.86071840916783   -3.97088815002290    6.07342757285756
S         -15.03776965487638   -2.46672246593601    6.42992995020763
C         -15.53917740633653   -4.62199166730767    4.88722956756158
C         -16.04532053912504   -5.78307059093386    4.27320279090389
C         -15.49913164534789   -6.03303218717172    3.04285531301635
C         -14.54295919248267   -5.08113349499685    2.61726281003555
S         -14.33080722036310   -3.88261775884953    3.87667148500805
C         -13.90286109137989   -5.00401735515777    1.39676189063889
C         -13.03297968288798   -3.98035241580037    0.99991314148960
C         -12.49675191156864   -3.70850502996115   -0.26854581199313
C         -12.75475877801849   -4.55361465619285   -1.47524831670948
C         -14.10067548096324   -4.20067291244103   -2.11405824559312
C         -11.76646206010201   -2.52320407079643   -0.30508032858314
C         -11.69894910925445   -1.84871266574937    0.90595817793221
S         -12.53902117555698   -2.74561861554381    2.12571853464875
C         -11.05792752003635   -0.63764598974491    1.29977055031972
C         -11.33558700707235    0.08419583407848    2.46606037744488
C         -12.48062602672477   -0.06222475119766    3.39163984913925
C         -10.39808993181304    1.16117464872058    2.62518418112724
C          -9.58861868377680    1.14746117777440    1.49718562604091
C          -9.95945833827075    0.01917101865015    0.65103010586611
C          -9.21901865160368   -0.20815792069162   -0.47790874925309
C          -8.17169742727651    0.68933388772916   -0.78018176141061
C          -7.89563660203005    1.72214874998502    0.06593320612755
O          -8.56294134340466    1.94498946271313    1.19047126991983
C         -10.33211499506629    1.89908298294288    3.84708848774247
C          -9.92325841941102    3.16311340265351    4.11790447172001
C          -9.45738211804988    4.14581423847013    3.21768940943554
C          -9.39746093953179    5.47929551380191    3.51346754551846
C          -8.50712596302631    6.39848237530244    2.77346330425558
O          -7.96206840467345    6.19604334769821    1.70927355619594
C          -8.36881775354403    7.58528852052346    3.64926438410916
C          -7.56840141047644    8.67937940946481    3.49501536924563
C          -7.57086358068022    9.68062189468281    4.49309663585622
C          -8.40792551172702    9.52840241261350    5.63621317689947
C          -8.39781498781821   10.52656477674076    6.63098092058946
C          -7.59534365689898   11.62464293109899    6.49710077472414
C          -6.76902571005221   11.77462494109556    5.36621630074632
C          -6.75654419708326   10.82437199302883    4.38404405161648
F          -5.99001378310877   12.86168642320866    5.26068241926527
F          -7.58619650295256   12.57302664479039    7.44443296406412
C          -9.23580158992254    8.38928122408019    5.76391454144427
C          -9.21637356529031    7.43354249549254    4.78488799320260
C          -9.96658244781640    6.19000000362472    4.63515615197659
C         -11.12257650693239    5.86670303282422    5.29852422214848
C         -12.00149015233830    4.84215783681452    4.88744688019803
N         -12.78715861468727    4.07572220453769    4.54997698632882
C         -11.61751016006005    6.56549407257565    6.41465687387830
N         -12.05810574867378    7.07140783250109    7.34714152296147
H         -12.85267385254229    7.15921061372141    9.54526591977679
H         -16.47928737075341    6.00897432186942   12.72447758725024
H         -12.81838968866156    4.88051818834199    8.72007873661357
H         -16.53943154437998    3.68174316242720   11.81668551221922
H         -14.27153507255405   -0.29626630224674    7.48992110463470
H         -16.47371732930238   -0.96298810786272    9.52075950297799
H         -17.53060891278612   -3.35312507954011    8.90265739650003
H         -17.40726193220167   -5.14883792912262    7.04961551576260
H         -16.79966399142733   -6.39470448286990    4.73535428592527
H         -15.77315764201378   -6.86885111577786    2.42246163050629
H         -14.12901208224229   -5.77648812815564    0.67370102538803
H         -12.74844447616111   -5.61008916571946   -1.19973196978930
H         -11.95841612383213   -4.38957449596300   -2.20345438760482
H         -14.91215343109783   -4.35756617151975   -1.40729473893736
H         -14.27583816338204   -4.82030738816883   -2.99007207631654
H         -14.11110952875423   -3.15695731564687   -2.41920559639875
H         -11.32953638552150   -2.14503909937921   -1.21194745111764
H         -12.21331800189297   -0.66363872932485    4.26298062274755
H         -13.33334647780654   -0.53108814556698    2.90818793634069
H         -12.78037843529429    0.91919109700407    3.75493473866477
H          -9.40729668962966   -1.04562241466573   -1.12954194234555
H          -7.58193728695986    0.55959417806995   -1.67111451346687
H          -7.11064186365443    2.44473689040091   -0.09991729352777
H         -10.72429253640667    1.34429786718050    4.69043198953737
H         -10.00195070010252    3.47049144309423    5.15372835966461
H          -9.04666124293708    3.84524757578913    2.26310114851489
H          -6.93795845702438    8.78133894416329    2.62468767337676
H          -9.02628671920495   10.42824636237065    7.50232463192660
H          -6.11737694267002   10.95429800373517    3.52475139052357
H          -9.85613163086187    8.29165924239531    6.64076388594476
