95
 SCF done       -210.953181591750          0.000929327348
C          -7.32520628835108    2.93866037831685    6.12908571876539
C          -7.41242981978006    4.27152599572557    5.83636477451882
F          -7.46359694469874    5.17495026858830    6.82207078872239
C          -7.45031089577590    4.71112005050901    4.49780637681744
F          -7.53855487479617    6.02201005051894    4.23907480152998
C          -7.39861612160391    3.81115256454562    3.47026413290837
C          -7.30877608078961    2.43199554274839    3.74005651171965
C          -7.27274097075472    1.98537480520919    5.09308190168185
C          -7.18749473460002    0.60408113191265    5.38932810421293
C          -7.14019579914492   -0.30193165303679    4.36436255305441
C          -7.17138154807536    0.15676010765490    3.01522381585837
C          -7.25338512634040    1.48205145147865    2.69682280492529
C          -7.10367087862612   -0.99995762314248    2.12159379348806
O          -7.09483554795693   -0.99133522881141    0.89013588637920
C          -7.04332782830478   -2.18537169715419    2.97900618660173
C          -7.05876351730228   -1.76351425480260    4.36080977837988
C          -7.01003230906861   -2.56613320246460    5.46995393977191
C          -6.93156235040031   -3.97306759429017    5.41885636213930
N          -6.86493976227798   -5.11888969072773    5.41876898163627
C          -7.03464370093900   -2.08559510890960    6.79533259871552
N          -7.05239377755651   -1.74430891642726    7.89095079811530
C          -6.99266060035821   -3.45452300652350    2.44202855446969
N          -7.00284065062094   -3.58786302106161    1.11496128678645
C          -6.95252030313150   -4.69996884242577    0.34459796642542
S          -6.76068740944246   -6.30098349924119    0.97541426412035
C          -6.72703001064522   -6.90471486185707   -0.65091537226576
N          -6.59127664283507   -8.29225736622686   -0.82230853380294
O          -6.56971783818494   -8.72029488816820   -1.95860752077107
O          -6.50738198067382   -8.95902209182743    0.19257113580762
C          -6.85009485648628   -5.93585795085792   -1.61078280808746
C          -6.99304074024403   -4.64978069491382   -1.05768183261736
C          -7.17658079890797   -3.41118808077967   -1.76160145554013
C          -6.86775557962753   -3.17489004544177   -3.05188606363587
C          -6.98931290139045   -1.89437401515106   -3.66879376671819
S          -6.41009238048976   -1.68338674067970   -5.28812814159280
C          -6.77781351643955    0.01635051229224   -5.27201656724376
C          -7.36103711321413    0.38278364959859   -4.06262523406686
C          -7.47192917697966   -0.69574126480885   -3.15564789505633
O          -8.05372226337873   -0.65369693307021   -1.93127013459550
S          -7.97010953787046    0.74074149326004   -1.02379346007664
C          -8.84091158482901    1.78751679483617   -2.21298197092177
S          -7.84679751297331    2.03580610461052   -3.72524004849485
C          -6.48543187237380    0.83112853841268   -6.39683994050487
C          -5.85186635349846    0.44736393116707   -7.57593684502675
C          -5.31374837042958   -0.82638738828029   -7.80848136390927
N          -4.83131753130158   -1.84777300654610   -8.01184701340578
C          -5.72513578107074    1.51846547829628   -8.50144801436885
C          -6.24279694633345    2.69901922940677   -7.98635407493446
S          -6.91473533472658    2.52985099505086   -6.41088860966388
S          -6.06855453955991    4.08928125169261   -9.00983326692281
C          -5.27778310323314    3.07181433064574  -10.16572086745239
C          -5.16875116734416    1.73171874285449   -9.79584483485686
C          -4.50868409822685    0.97674165428422  -10.79655303132205
C          -4.38793731618374   -0.42153178587555  -10.83005467168559
N          -4.30912911840568   -1.56092092887276  -10.93597940256485
C          -4.09535185354233    1.76117463354861  -11.86938394040831
S          -4.58905271980390    3.42746565810618  -11.69612095987600
C          -3.39119030539738    1.36027653079630  -13.03778136810192
C          -2.51455576243248    0.33688277695626  -13.18464722443146
C          -2.20350241738079   -0.15418715994412  -14.56455618276677
O          -2.45057994230687    0.41590394685895  -15.59926399395526
C          -1.60127225493236   -1.48495658654133  -14.36867694615642
C          -1.26885164231485   -2.42355091064892  -15.30369037273731
C          -0.74286245540682   -3.66228968754367  -14.87435786716625
C          -0.58512987470800   -3.91203217690220  -13.47912565873003
C          -0.07658481413974   -5.15773577042336  -13.05895043837453
C           0.26655645098355   -6.10755025626843  -13.97966270321304
C           0.11545531389575   -5.85746129949661  -15.35915102539703
C          -0.37935283999799   -4.66163417654596  -15.79839436611082
F           0.46154068959026   -6.80594481512746  -16.23882820486230
F           0.75297735986684   -7.28875728843963  -13.58053203037297
C          -0.92935676654224   -2.91913969870849  -12.53447966766307
C          -1.41676762723012   -1.71811238486160  -12.97549949221510
C          -1.82339053334614   -0.52507501457046  -12.24276248290329
C          -1.40657615083097   -0.19964266997220  -10.98177236011034
C          -1.66495438021510    1.03726395657776  -10.35926231274655
N          -1.83998056558314    2.03488141968044   -9.81865644799564
C          -0.59917349986926   -1.03852663946060  -10.18281934828556
N           0.06934271860655   -1.66796433850119   -9.49604319836280
H          -7.29727099102085    2.62034883446446    7.15948081206344
H          -7.42623984010248    4.16227324147778    2.45069605344798
H          -7.16295695564212    0.30031446255910    6.42325702106008
H          -7.27671216880606    1.79454793307441    1.66349177202849
H          -6.94827343071055   -4.35148057579217    3.04617337983072
H          -7.03746006276815   -2.67216706491861    0.61975064439379
H          -6.85687521411009   -6.16071301158087   -2.66143897300004
H          -7.57628235507164   -2.59011580652041   -1.18750590529053
H          -6.44919461519254   -3.94996092422927   -3.67806599968046
H          -9.79426778852014    1.33286985612209   -2.47361743512472
H          -8.98071364417676    2.77080658327492   -1.77511778640079
H          -3.61162541007446    1.91807501230889  -13.94316206756496
H          -1.40934390125466   -2.22585041180132  -16.35546047854614
H           0.04692738437377   -5.36354998703264  -12.00728695653448
H          -0.49047683523786   -4.48715899702467  -16.85713480866595
H          -0.81894648982143   -3.13572086438555  -11.48418175427199
