117
 SCF done       -223.276081025033          0.004832555089
C          -9.69639595654069  -10.56568923016838   -3.53576453780293
C          -8.75328808845351  -11.16177996449854   -4.32581514294775
F          -8.96343251101816  -12.39108766140284   -4.81330272694081
C          -7.55773340258307  -10.48988304074150   -4.64924484172467
F          -6.65784664302401  -11.09701686326730   -5.43310960213113
C          -7.32212520046921   -9.22742017946477   -4.18160912343979
C          -8.28755863740860   -8.57656105904465   -3.38976186963720
C          -9.49358759334822   -9.25658593504337   -3.05511512116029
C         -10.48274531827305   -8.61534123690332   -2.27124172156587
C         -10.29176919052618   -7.31943383605652   -1.87341379474204
C          -9.09792328042015   -6.63512927544224   -2.24566909761804
C          -8.10478665414882   -7.24310858706865   -2.95967492574844
C          -9.18349979811755   -5.24998587930796   -1.77001110521236
O          -8.37325533342519   -4.34563583615960   -1.96602521063847
C         -10.45368290173430   -5.13115330816515   -1.05885425912712
C         -11.13603695394353   -6.40539164750505   -1.10203873290439
C         -12.34377641436283   -6.72011988157535   -0.53704496608369
C         -13.12765068436450   -5.81555876082587    0.20913431065650
N         -13.79124006052843   -5.10189478011792    0.81644180905591
C         -12.95201511823887   -7.98905098830366   -0.62920303568585
N         -13.48968646399654   -9.00198988167221   -0.67320140745030
C         -10.86121303921792   -3.94568137054144   -0.48988939047568
N         -10.11553082454978   -2.84063136379391   -0.58896647380435
C         -10.41278892654654   -1.61860886733674   -0.06617669544933
S         -11.82848718163921   -1.44283214081516    0.93572683764623
C         -11.47207308226170    0.23886765514219    1.11667520424201
N         -12.33919982325353    1.01765981081950    1.90233298591728
O         -12.07588363594836    2.19704500001711    2.02823267269114
O         -13.29023890127999    0.44306455208693    2.39728632867503
C         -10.34801242428149    0.63119459939530    0.44701471505851
C          -9.70755672120783   -0.42158202421503   -0.24520917718201
C          -8.51657646733066   -0.13672973413099   -1.00877797703109
C          -7.69660707600373   -0.96901412446330   -1.67121196989570
C          -6.48585950628989   -0.55940078848747   -2.36425665705238
C          -5.98537907174417   -1.29673648287654   -3.44781613577918
N          -6.58993031802028   -2.31747375283187   -4.15546738319296
C          -8.02541753580655   -2.35963982137593   -4.35280894133824
C          -8.41648925629032   -2.15945749264311   -5.81500838473280
C          -5.64591893720806   -2.85996714861057   -5.00641885763744
C          -4.45304596528662   -2.10143375820917   -4.92465081147753
C          -4.67568103313834   -1.08858248568904   -3.92990239602734
C          -3.89407697198889   -0.06006279016627   -3.42551566402490
C          -4.42559186789785    0.73918794474927   -2.42897374533147
C          -5.68153736371674    0.48228508224673   -1.89861328645936
C          -3.35583599500978   -2.40330032324561   -5.71499795964072
C          -3.44400505967768   -3.48449733955038   -6.57659236229732
C          -4.57881352339360   -4.27338265743641   -6.61074388801872
C          -5.70458771357286   -4.01677712636968   -5.81230631183722
C          -6.80408639408339   -4.93508823524634   -5.73755055333193
C          -7.04551896057815   -6.00643257236727   -6.54234712418279
C          -8.13267449540452   -6.87180416729037   -6.32807846016502
C          -8.39416529947127   -8.00361587345418   -7.05830683869672
C          -9.43979647913829   -8.93305188112908   -6.83747036394593
C          -9.43638554657201   -9.99154951848319   -7.69469255430569
C          -8.40458182386066   -9.94111818007588   -8.65861980665757
S          -7.41243846481187   -8.52881643029237   -8.41724907105403
C          -8.18473806395525  -10.81962167013855   -9.70685855527359
C          -8.88236038861592  -12.01089409002036   -9.99636459386909
C          -8.48567725429234  -12.61508681007663  -11.15393699076676
C          -7.45698958732230  -11.92773510238102  -11.83649740705832
S          -6.97850511710790  -10.51366901323148  -10.93407635019146
C          -6.90805182876125  -12.18004127872798  -13.08119765389214
C          -7.23193644309749  -13.26681366138838  -13.88488882986135
C          -6.86059218747920  -13.44771022761064  -15.20319427519927
C          -6.86490071158836  -14.80005175740996  -15.79686088992307
O          -7.33540672153691  -15.80923334645570  -15.31506080495292
C          -6.13513169737077  -14.66785489805445  -17.07834904795691
C          -5.78212471908757  -15.63516866799348  -17.97256914036024
C          -5.05038458126690  -15.27088964188685  -19.12649382021338
C          -4.69662617101269  -13.90582681126606  -19.32645524406043
C          -3.96024795527768  -13.54945683424680  -20.47319978216494
C          -3.59448882893171  -14.50330650999100  -21.38106904036360
C          -3.94666636768162  -15.85212991891331  -21.18376396207391
C          -4.66018103239068  -16.22960989333674  -20.08074007783663
F          -3.57461270600942  -16.76830145523195  -22.09095732960854
F          -2.89434533935837  -14.16090571559724  -22.47283066410145
C          -5.08574342515867  -12.92346055121906  -18.38539308826145
C          -5.79959912501439  -13.29882947914704  -17.28084259099954
C          -6.36113901001076  -12.51872341866854  -16.17588737034846
C          -6.56513046159121  -11.15646221041879  -16.20218620404175
C          -7.38359737601221  -10.45838210908590  -15.29399107668271
N          -8.08096761332946   -9.84330640705350  -14.62116927690716
C          -6.07190294942356  -10.30997732559483  -17.21274263548676
N          -5.67648941885602   -9.57095211145341  -17.99931064197106
H         -10.60410984546456  -11.09635490388511   -3.29400733784402
H          -6.40407741960696   -8.72381691890148   -4.44022070247081
H         -11.37602575453896   -9.16407154913788   -2.02073323483305
H          -7.19837279045244   -6.71347551236288   -3.21159958082575
H         -11.79819589300372   -3.86331577580077    0.04498340993175
H          -9.23619698153459   -2.96721889446715   -1.10872484916696
H          -9.99701206879051    1.64757499877001    0.45985792811374
H          -8.28952309091795    0.92104171943554   -1.04340385699446
H          -7.85192185854726   -2.03706594202447   -1.68883531514348
H          -8.44914990186694   -1.53559817128369   -3.77370545619931
H          -8.44469274635676   -3.28986022503566   -3.95849725095100
H          -7.98111986135885   -1.23637906190905   -6.19225774669165
H          -9.49869944360043   -2.08914990326465   -5.89112514221996
H          -8.08069861828864   -2.98091775105974   -6.44219048193589
H          -2.89486278022817    0.10584854660974   -3.79661235152789
H          -3.84084870965471    1.55123406286355   -2.02453660643353
H          -6.02516429955060    1.06858836423417   -1.06018626835038
H          -2.45515824509503   -1.81293324935096   -5.65208455144621
H          -2.60610387149727   -3.73636738614601   -7.20852868676930
H          -4.58488282117978   -5.14186349354863   -7.24993846427782
H          -7.48867714195439   -4.78668153315793   -4.91560816826413
H          -6.40482199296281   -6.22998936165291   -7.38348999863878
H          -8.81233847620615   -6.64553391861397   -5.51575139341336
H         -10.15789562169148   -8.78867802842776   -6.04874933897828
H         -10.15326156070602  -10.79222762931512   -7.67120029036389
H          -9.65567427560903  -12.39019265922597   -9.35302623080394
H          -8.91614817904689  -13.52230144287913  -11.53657627957868
H          -6.18216151058524  -11.46577171636988  -13.44413953761247
H          -7.75686742870588  -14.10533730908819  -13.44239809857049
H          -6.05802754672091  -16.66517966809332  -17.80542858518296
H          -3.68592026449496  -12.51966173484216  -20.64085725168307
H          -4.92219987778782  -17.26721083062846  -19.94472946543806
H          -4.80012014294873  -11.89864055793191  -18.56073587086512
