98
 SCF done       -176.949547184054          0.000454039378
C         -15.50016620173586   -9.68727152578667   -2.74832878342525
C         -16.40654375005204   -8.66654886530744   -2.83214569178609
F         -17.71164695650424   -8.90532902633367   -2.63070264289413
C         -15.98699649436812   -7.35729405084558   -3.13153657896511
F         -16.89591007499128   -6.37024773261368   -3.18475143966299
C         -14.66649684993593   -7.08763950215664   -3.35970200779081
C         -13.70965437823503   -8.11464815511054   -3.27334580144354
C         -14.12944965834033   -9.43830632205884   -2.95618419791898
C         -13.17969637368971  -10.48176294583652   -2.84380092436950
C         -11.85230870631971  -10.20598826319349   -3.03503778643558
C         -11.44471308698581   -8.87831827036350   -3.35646148298063
C         -12.33632214724891   -7.85285041945614   -3.48018217496070
C          -9.98531056135861   -8.85583951088792   -3.49586628458123
O          -9.28132136835137   -7.88337512537669   -3.77069622606741
C          -9.52322774083905  -10.21816081380158   -3.23595777116297
C         -10.66466454879168  -11.05605855133853   -2.96473141423434
C         -10.65897873709102  -12.40252111934193   -2.69186117846520
C         -11.81639227514640  -13.16194550119499   -2.43515745232409
N         -12.72557409537769  -13.82971435971635   -2.21846668390174
C          -9.49253254767901  -13.18965837340180   -2.63961592646865
N          -8.56690472443343  -13.86785281207781   -2.58903477439833
C          -8.18009237310716  -10.53465227804580   -3.25568217415251
N          -7.29368930999889   -9.57272200374237   -3.53298494735137
C          -5.94475227639401   -9.64102853240611   -3.58062787387108
S          -5.06731688188115  -11.09853369495355   -3.23390230198808
C          -3.58418342128399  -10.23417781908342   -3.49561618119787
N          -2.38476409507715  -10.93460557509223   -3.35340695006917
O          -1.34582326474478  -10.32128616279642   -3.53718512854118
O          -2.46591648763303  -12.11527018683517   -3.05305677357715
C          -3.76245920057619   -8.91551345051196   -3.82652528158039
C          -5.11747509040367   -8.54733853596544   -3.88602165771494
C          -5.63548470625766   -7.24820216349694   -4.21937705395827
C          -4.91640831788721   -6.12111083293786   -4.37702313055312
C          -5.56279751889460   -4.88375913141196   -4.70679716543454
C          -4.99347858624492   -3.67489337194207   -4.80599325985690
C          -3.54048076900486   -3.39024174660273   -4.58550178295194
C          -5.80665735718144   -2.44799976452565   -5.16593273192478
N          -7.11286511796861   -2.70025784097178   -5.71434700287221
C          -8.22083525602923   -3.00061541560819   -4.99665444209469
C          -8.31459230533983   -3.03563873473981   -3.63855511209221
C          -9.48531379626493   -3.27505781433696   -2.88997997916559
C         -10.78207854276311   -3.48173876451888   -3.29095441219316
C         -11.87787215894715   -3.65376213565042   -2.40811842936401
C         -13.09008392462770   -3.78930324207428   -3.01483454477418
C         -13.03241076035772   -3.74863668664258   -4.42550346024272
S         -11.37495142167976   -3.53492318178540   -4.94954776476779
C         -14.07202569877477   -3.85193981497888   -5.33111990379111
C         -15.45024710089151   -4.00722280894274   -5.06699281130115
C         -16.22976653521999   -4.08167803108587   -6.18157424072866
C         -15.51603753499493   -3.95760375316475   -7.39846589409504
S         -13.79966737098419   -3.77568607378171   -7.06105395826333
C         -15.98084098888664   -3.87507818037767   -8.68680708705405
C         -17.31757830010313   -4.05276469170754   -9.10819629565573
S         -17.89444493010959   -2.99473159119721  -10.37688365399908
C         -19.49974033876185   -3.53005358164931  -10.19899531601121
C         -19.61214748296193   -4.52133403848175   -9.24942125792054
C         -18.35785341457450   -4.87331289668824   -8.64990146674309
C         -18.29038773141261   -6.01766178906285   -7.80380399324467
C         -19.47822419365114   -6.62836237510578   -7.46862546775305
C         -20.72723199753618   -6.20586872755638   -7.95253022358286
C         -20.81478404718215   -5.18516038891702   -8.86298199392394
O         -21.94567245769998   -4.73813838027366   -9.46639175232584
C         -23.16439323827221   -5.36389552076419   -9.14277798354860
C         -17.01162836065259   -6.60508613203098   -7.42442861704201
C         -16.79266066598803   -7.35556201798102   -6.35183536056381
H         -15.83964229849913  -10.68453242292593   -2.51597968563387
H         -14.35617183959787   -6.08561952852659   -3.60576600147620
H         -13.52848232078663  -11.47215600609511   -2.60047289676577
H         -12.00172167543219   -6.85559706918809   -3.72273481107382
H          -7.80450292082552  -11.52839644981394   -3.05188233008024
H          -7.74372421184636   -8.65218709956194   -3.70962852255503
H          -2.93302482181345   -8.26245781326377   -4.02455275530598
H          -6.70741664877332   -7.17266681689774   -4.34754566361390
H          -3.84509872918722   -6.12918138353771   -4.25122326716156
H          -6.62882475599262   -4.96822389657353   -4.87416023163980
H          -3.09326820646649   -4.09975099518518   -3.89641960815402
H          -3.40729156425262   -2.38705372269308   -4.18517669350574
H          -2.99916292248632   -3.44606673415646   -5.53090892563115
H          -5.24415004219590   -1.86075017128866   -5.89967499873439
H          -5.92001839633298   -1.82389326958165   -4.27164461676312
H          -7.14290799406560   -2.90413383328083   -6.70020856899298
H          -9.09111319743225   -3.19336896429649   -5.60521225578379
H          -7.41986557654917   -2.88052481558012   -3.05327971460623
H          -9.34831255549308   -3.28532838808537   -1.81522584884027
H         -11.73512808287438   -3.65754040719818   -1.34145936768796
H         -14.01969326591931   -3.90013512461562   -2.48484390497856
H         -15.84041019069983   -4.04380190276814   -4.06565312867299
H         -17.30057223374358   -4.16425261795338   -6.16177650121220
H         -15.28540562217514   -3.52867772884009   -9.44105747439566
H         -20.28592710975586   -3.10221022860789  -10.78648026009423
H         -19.45584883614653   -7.50306932315757   -6.83751733626865
H         -21.60586212561133   -6.73965657968090   -7.62747383174544
H         -23.92351787711080   -4.85680592613169   -9.73607399834973
H         -23.40070817014839   -5.25331027890836   -8.07976898094209
H         -23.14925402721003   -6.42694844253978   -9.40328511221813
H         -16.20224220332230   -6.42232251687329   -8.11919467083217
H         -17.55875998576659   -7.53998519714713   -5.61828064279341
H         -15.82947298659203   -7.79858324066302   -6.16161334894818
