102
 SCF done       -211.398585697233          0.000285203470
C          -5.11761601042868   -7.51325170848793    7.07255352508121
C          -5.52469157503264   -7.04354306720664    8.28985248265579
F          -5.52615889334206   -7.85211206775881    9.35680357602391
C          -5.94756790068644   -5.70703606956234    8.43841637443972
F          -6.34169698384721   -5.27513945623607    9.64278383542469
C          -5.95818234382186   -4.85853224598405    7.36664581614891
C          -5.54612031631202   -5.31331026479393    6.09914287903582
C          -5.11634008296679   -6.66377065649652    5.94797274369614
C          -4.69362558790490   -7.14151666347700    4.68631556683043
C          -4.69888773188006   -6.29414574731824    3.60967588168868
C          -5.13443465235518   -4.94899261109842    3.76959156908424
C          -5.55094604876517   -4.45939644471338    4.97372879511949
C          -5.05141641430691   -4.25007200767020    2.47681080033446
O          -5.41812279995882   -3.11725256341659    2.23289876013202
C          -4.52951495986316   -5.24516622411826    1.51626709371738
C          -4.31129102783001   -6.49630663128825    2.21720113669676
C          -3.76836208472293   -7.64256782715156    1.69902751337677
C          -3.32875696566497   -7.79438765927075    0.36777245285657
N          -2.94704773782806   -7.96958780071518   -0.70116658289285
C          -3.56246082551494   -8.82577098718040    2.43984287762455
N          -3.37828866435153   -9.81888882711873    2.98458927411482
C          -4.45818601725550   -5.06816397676959    0.16213453952368
N          -4.48805773088722   -3.89652066966287   -0.50953640024346
C          -4.11094184400514   -2.65194499788447   -0.07442322827297
S          -2.91587850074835   -2.45058283637291    1.15663179497031
C          -2.97984940926428   -0.74009170927780    0.91635141887196
N          -2.15608852307245    0.04801592403076    1.73757711250277
O          -2.18206315566159    1.25076938525102    1.58395972685249
O          -1.47030651930642   -0.55296698430741    2.54539916220396
C          -3.85460837244992   -0.34988660001372   -0.05805575627637
C          -4.51568055672977   -1.44464486988618   -0.65549005986326
C          -5.48634543586796   -1.35943567293849   -1.70946591747942
C          -5.92176843610133   -0.21270414026565   -2.26937069904507
C          -6.85989650545717   -0.15027943269600   -3.33723762970152
C          -7.34793033164987    1.01064634364777   -3.92133449356402
C          -6.94912856767039    2.27665598155241   -3.45875024982937
N          -6.58493885352561    3.27947876593682   -3.04018531558071
C          -8.24802151121225    0.75201918307295   -4.98866304479962
C          -8.41715305251956   -0.61482065136832   -5.18375649268447
S          -7.51184755142005   -1.59042851380379   -4.09410180209248
S          -9.48632601723140   -1.04975374492246   -6.47665294024852
C          -9.72344463016366    0.64393226465407   -6.77283033045648
C          -9.02388251175754    1.49428428683459   -5.92580672143322
C          -9.26774402350611    2.85818854421728   -6.24406896104719
C          -8.58999089876435    3.95802765123629   -5.69191127308684
N          -8.01833853390843    4.87460184912445   -5.30761253284678
C         -10.15153634845729    3.00387208039018   -7.30527492087979
S         -10.67065425454604    1.46119098915224   -7.95612232461171
C         -10.61199970593747    4.22953586790054   -7.85876091740801
S         -10.75651007201316    4.45636631477240   -9.56768540192055
C         -11.18603105673886    6.13070967612771   -9.40567684262931
C         -11.25501920712814    6.48873355904749   -8.05278949932531
C         -10.94984375468444    5.40326462387288   -7.17133299213505
C         -11.10421443776429    5.55489078706699   -5.78502642999630
C         -11.46640368788411    6.78468477979229   -5.27727555287608
C         -11.67735390713307    7.02746215570758   -3.85341740221441
O         -11.84258546020039    8.10699602493305   -3.34385862706066
C         -11.75220469420148    5.76472313794032   -2.94096032651330
F         -10.59401963130175    5.09429708962058   -2.85680458136534
F         -12.11146961002740    6.08725236498008   -1.70095639792095
F         -12.66962117646870    4.88385213001278   -3.39381249974964
C         -11.66907423239566    7.88977322417878   -6.15200859069015
C         -11.58836231353879    7.74511290081458   -7.50189200356578
C         -11.41189554450979    6.96037182295976  -10.52748836577963
C         -11.31916255284127    6.55597185402432  -11.81863921874958
C         -11.52688389920073    7.38266169560366  -12.95713392160923
C         -11.87585343804308    8.77317936086349  -12.96445362910127
C         -11.97338680299289    9.20493724902211  -14.27629653068150
C         -12.28326108344527   10.46798147219055  -14.82135508848571
C         -12.29615282282364   10.58410918851231  -16.18663346254426
C         -12.56104380914687   11.69391004304622  -17.04744150999113
C         -12.43942744412143   11.28081275109970  -18.36340901222697
C         -12.09445898980846    9.89520015051178  -18.35952610754983
C         -12.00284196045683    9.45320054761459  -17.04443735001914
C         -11.69586669159728    8.19432793121095  -16.50476491123233
C         -11.68206622974376    8.07334163660925  -15.13349475859143
C         -11.41336922279622    6.96816585195270  -14.28161018603575
C         -12.63205740539603   12.12414294205678  -19.51918595281189
C         -12.51620090166822   11.73842432328762  -20.78676014079884
H          -4.79520453979776   -8.53832629965145    6.97687257257255
H          -6.28385427605951   -3.83844508040540    7.49700583542284
H          -4.37719040910596   -8.16869927427551    4.60476525364417
H          -5.87368959045356   -3.43373998303065    5.06715620417320
H          -4.40605166826538   -5.93711005342955   -0.48183364998322
H          -4.74114151469235   -3.94876950307758   -1.48947046867414
H          -4.00689348106065    0.68234700483165   -0.31373854676779
H          -5.90218254478219   -2.29161502398587   -2.07241102938672
H          -5.56308036425042    0.74656980115499   -1.92438141019642
H         -10.94714534266117    4.70103560828189   -5.14820460013025
H         -11.92091249854751    8.83818772447865   -5.70442809156342
H         -11.78452737918001    8.58156571032679   -8.15375693663514
H         -11.66694728793427    7.98592907666907  -10.30521888792216
H         -11.06135857283846    5.52310836862002  -12.02172455705778
H         -12.03514361272097    9.38106283029202  -12.09278786424775
H         -12.49972279438734   11.30679116595112  -14.17477191341275
H         -12.81260867532639   12.68502533308071  -16.71621450868475
H         -11.93165572116484    9.29228551759206  -19.23405062318178
H         -11.47807524168697    7.35512509958763  -17.15043415481487
H         -11.16137567506413    5.97651744326830  -14.61028638641794
H         -12.89154152925761   13.15110528707062  -19.29390412256450
H         -12.26039609920955   10.72921922354730  -21.06044768588084
H         -12.67481173444487   12.42491564585243  -21.60002524799186
