102
 SCF done       -211.445528112408          0.000559164429
C         -13.15007684876580   -5.62361573807248   -6.19172272500065
C         -14.37999301328001   -5.49141349773873   -5.60966408381852
F         -15.49041316507658   -5.69967850418902   -6.32563079806224
C         -14.49334343115248   -5.14035977926294   -4.25050918205669
F         -15.70966645272407   -5.00697228134818   -3.70370190838412
C         -13.37683641538595   -4.94015643015808   -3.48772720423301
C         -12.09699708836503   -5.07704235607062   -4.05708929182254
C         -11.98066950832207   -5.41177504419946   -5.43662509721914
C         -10.70462317366190   -5.51456601010725   -6.03893666771870
C          -9.58405438004771   -5.30561204097192   -5.28177114577245
C          -9.70986532818862   -5.00923496317222   -3.89698687603131
C         -10.92428979335924   -4.89354557948993   -3.28831468357330
C          -8.35818809208692   -4.92415622319057   -3.30892258942613
O          -8.10458551115587   -4.91605982011774   -2.11157474208497
C          -7.41946575137629   -4.99086649496934   -4.42306599546809
C          -8.15919120568390   -5.32924639637752   -5.61599960179937
C          -7.66322892782661   -5.64600855138216   -6.85906125755116
C          -6.30969638600998   -5.65677539432703   -7.24942869182118
N          -5.24591693058860   -5.67143130533378   -7.68561955889341
C          -8.46402004450840   -5.98763057377027   -7.96515775978502
N          -9.04578146717134   -6.25555370960636   -8.91953797185883
C          -6.03785043703546   -4.85753007873105   -4.37220315590944
C          -5.15965982919492   -4.49713345653241   -3.35971639751624
C          -5.29925959040051   -3.90261752062535   -2.11194122698993
C          -4.22357599641589   -3.87269224896142   -1.18056684583066
C          -4.53011482983252   -3.31192631742960    0.01794349540682
C          -5.85468117446726   -2.81619191738964    0.06992481746084
S          -6.66574510801639   -3.07331554429084   -1.46179871128649
C          -6.50490554235024   -2.30473066977230    1.17610060900654
C          -6.00839995049667   -2.18939513279706    2.49758654260119
C          -6.91574382174628   -1.73475276734956    3.40304311906063
C          -8.18273981607384   -1.43239508916980    2.84600011755495
S          -8.16354324846738   -1.77064199786754    1.10611053283929
C          -9.28416187067239   -0.93312678480403    3.47907943303724
N         -10.41026838888067   -0.63071371048778    2.79420498933725
C         -11.53266946870111   -0.00714012840403    3.22841309028472
S         -11.85212108811438    0.31942130645014    4.89662802967502
C         -13.29035609481953    1.17341575432337    4.42785990979768
N         -14.05358910920381    1.72804096299958    5.45819769096068
O         -15.05869645096611    2.34305847016595    5.15742982826420
O         -13.63857309592589    1.54881462229238    6.59260229472619
C         -13.50025439768466    1.20284633997630    3.07223465181197
C         -12.50473231411140    0.51560631049930    2.36281719269033
C         -12.37231146901364    0.38750350875181    0.93102577997723
C         -12.69111282428781    1.33273895501602    0.03289683468211
N         -12.35098345091424    1.17577701107129   -1.28219260949834
C         -12.44288691818726    2.10130314691022   -2.25354939007930
S         -13.51744714070861    3.45962268545393   -2.15812121672269
C         -13.07744110449938    3.90255589291738   -3.78291925913376
N         -13.65916261739441    5.06122039813360   -4.31109458181380
O         -13.35863377060119    5.37924001022789   -5.44544053600943
O         -14.42585388778608    5.66441865201014   -3.58032757104298
C         -12.16856331497842    3.05740240529107   -4.35455890640683
C         -11.75570353710778    2.03241761034502   -3.48038580485786
C         -10.71732839103784    1.09578785752986   -3.79065305584223
C          -9.87299971458870    0.51801556242044   -2.90063386592951
C          -8.84790770542565   -0.40352873455794   -3.25496000165548
C          -8.85799755137057   -1.28826032038383   -4.28960663684626
C          -7.57686880137311   -1.78623608773774   -4.86422705839012
O          -6.48843186392963   -1.76717041240693   -4.33849618245530
C          -7.92825783422608   -2.22928053680866   -6.22801123053484
C          -7.10519148244222   -2.59342321345795   -7.25479034866696
C          -7.67392348805023   -2.96675883623815   -8.49457682505048
C          -9.09254576026204   -2.95676175027179   -8.64816965650313
C          -9.65166972011520   -3.33492796708592   -9.88450075995215
C          -8.84205919038727   -3.71231103438945  -10.91921458053228
C          -7.43999286305027   -3.72698998307211  -10.76432888993712
C          -6.86607484288178   -3.36042561534155   -9.57852591761013
F          -6.67440453735704   -4.09328785849646  -11.79519501924458
F          -9.37142436633773   -4.06023327549201  -12.09376639238726
C          -9.92015912317988   -2.57215069009450   -7.56971530938002
C          -9.34681272205027   -2.20643950765195   -6.38058912725344
C          -9.93736418423757   -1.75013788997264   -5.13173931417237
C         -11.24766579490043   -1.90965333752904   -4.74235608006355
C         -11.65960896556102   -1.63969804080370   -3.43283240559285
N         -11.99233027446973   -1.42339268940236   -2.35162983927266
C         -12.28477391758772   -2.32977299966767   -5.59517131788517
N         -13.17332279982422   -2.60874633281484   -6.26613909472178
H         -13.07971631732604   -5.88437891748061   -7.23585572415844
H         -13.48062298158417   -4.67462504412892   -2.44712560228919
H         -10.65164625207373   -5.75785153326468   -7.08731040980693
H         -10.99360384502122   -4.66420753439381   -2.23557400252341
H          -5.53121508604041   -5.12741506227564   -5.29024078468695
H          -4.12394327405979   -4.72927453190154   -3.58825583738216
H          -3.27188430911599   -4.31501939329820   -1.41659850108352
H          -3.85759686423078   -3.25674565150307    0.85441355179399
H          -4.99957687906047   -2.46571527886493    2.74325332522390
H          -6.71915448043431   -1.60238957722396    4.45162906618671
H          -9.28195079277050   -0.74090288469882    4.54143790302517
H         -10.36994681090784   -0.81018354424465    1.79513853358123
H         -14.35034742586091    1.68721648751568    2.62831486341052
H         -11.90982931278707   -0.51888473391960    0.55916647837856
H         -13.13788035694182    2.27747556968791    0.30590706695978
H         -12.03470774495883    0.23840534328784   -1.56935282816378
H         -11.78828062106799    3.20143648194479   -5.34977541597646
H         -10.55975374088387    0.91478381911516   -4.84705360292934
H          -9.88259023455953    0.84330419393442   -1.86876820516004
H          -7.92591266231385   -0.35738850457286   -2.68546539778100
H          -6.03352533816582   -2.60586603233223   -7.12508434928939
H         -10.72213166815199   -3.33765686264287  -10.01652451947486
H          -5.79284376244140   -3.38868845157690   -9.47292881952220
H         -10.98943877052725   -2.55776464765780   -7.71185279217299
