99
 SCF done       -206.302377804419          0.000550302527
C           0.94963003454151   -4.86933067866343   -3.04596751571583
C           1.75969426386353   -3.78241516001142   -3.22412715290884
F           3.08881467627327   -3.93237695725608   -3.26050083688838
C           1.20854939730127   -2.49347523159748   -3.37132591573137
F           2.02500527895190   -1.44650170012970   -3.54484024967701
C          -0.14551637586158   -2.30929834371810   -3.33798288375060
C          -1.00572041803417   -3.40914777106091   -3.15442930630815
C          -0.45008053696776   -4.71304769117736   -3.00616613400123
C          -1.29458663360618   -5.83218956719586   -2.81770915014208
C          -2.65111705445580   -5.65242160518019   -2.77413682767057
C          -3.19745510962541   -4.34390819367230   -2.91944557300514
C          -2.40785133261311   -3.24580856970364   -3.10805283363665
C          -4.65861876967114   -4.42450462993605   -2.81143734419675
O          -5.46645079630940   -3.50439112427394   -2.89327551288099
C          -4.97348312258830   -5.83669203670675   -2.56770550478865
C          -3.74716877573804   -6.60189082016650   -2.58186750016288
C          -3.61892771576988   -7.95971380972970   -2.45703166039163
C          -2.38639341542493   -8.64464791198132   -2.48433453613717
N          -1.41309979602031   -9.25257864770180   -2.50096370060273
C          -4.70873986530304   -8.84118081672476   -2.30132414561194
N          -5.57208641667669   -9.58731765061875   -2.17816110390916
C          -6.25778610076849   -6.25022425485836   -2.30969018551210
N          -7.26112751394423   -5.36591262872463   -2.32496984862132
C          -8.54905205181891   -5.57042763526264   -1.94723994042949
S          -9.10723325193362   -7.09058382623989   -1.32620272583714
C         -10.64367386945331   -6.36141421066329   -0.98756355087512
N         -11.63698990256185   -7.18021438380429   -0.42426678007484
O         -12.71589270647248   -6.67694492409378   -0.18737895331831
O         -11.32948697101157   -8.33951118370947   -0.21787070610585
C         -10.71060347356533   -5.03429243007616   -1.31602669893933
C          -9.51818097367018   -4.56291918264640   -1.89548280901884
C          -9.31446512586375   -3.20455252476596   -2.34164991006635
C          -8.61495445555182   -2.86173838364766   -3.44145390894046
C          -8.35527380490138   -1.50675046362149   -3.79734423120325
O          -7.78558718622802   -1.22354249095728   -4.99587440929372
C          -8.51663384326203   -0.32481101593238   -3.10282525776767
C          -9.01013223292417    0.26211534509138   -1.85379952702727
O          -9.54429947192124   -0.24683875446626   -0.90095166642845
N          -8.73495441055863    1.61650205399418   -1.99631009933981
C          -8.12327781816790    1.97643444625763   -3.19777983969288
O          -7.79181145977158    3.09647549743852   -3.49467712438571
C          -7.99687049617229    0.71000727133876   -3.91736421319225
C          -7.56007790391854    0.11587535427270   -5.09352512004370
C          -7.00893497422436    0.64773875695332   -6.28049922577757
C          -6.61618546563954    1.95156637673383   -6.37969625583390
C          -6.10867684718175    2.58768082228439   -7.52758457426953
C          -6.20913298014070    2.20085525781464   -8.84302145568031
C          -5.67928750764862    2.92774711933692   -9.94154590677856
C          -6.01175201283332    2.42873962794235  -11.16254254698354
C          -6.83505782085185    1.28050661798330  -11.10324387061250
S          -7.12236204731306    0.82677784986984   -9.44134592271193
C          -7.40498637081012    0.60134794697195  -12.16580488806229
C          -7.25388450528244    0.88370738614254  -13.54245735200114
C          -8.00478379019793    0.09004392224401  -14.35623850139256
C          -8.79022438182546   -0.86469003541023  -13.66445945696766
S          -8.51205017002350   -0.73321144811547  -11.94317788526716
C          -9.69763682416853   -1.77932249066111  -14.16419337797718
C         -10.00746882497171   -1.87866057279060  -15.52002824576920
C         -10.95110055216850   -2.72854253832283  -16.05705671166840
C         -11.31710313512170   -2.82587502819584  -17.44893578617706
C         -10.77224864019970   -2.12894474243490  -18.50318321275464
C         -11.18165267385499   -2.27337737364426  -19.84385770158876
N         -11.46627255658911   -2.34240140811225  -20.95437743323844
C          -9.73736995345157   -1.17814789896003  -18.41040786816479
N          -8.89929048703449   -0.39101100496254  -18.41702509752659
C         -12.39149179030574   -3.80980188195464  -17.55803288978859
C         -12.67351502073829   -4.31989739435456  -16.26712578443610
C         -11.78275189335501   -3.67292051031010  -15.28136165798735
O         -11.75704186215349   -3.88642907324772  -14.08574967333410
C         -13.64504982096564   -5.26264513191369  -16.03845925865380
C         -14.37752507034485   -5.72537363151688  -17.13736262901820
C         -14.08902835683468   -5.21065383716493  -18.42300121949037
C         -13.10420326612198   -4.25730966815508  -18.65406329043418
S         -15.11239228250125   -5.91486244000323  -19.63802750124941
C         -15.90349157875067   -6.87771242051884  -18.41844975767857
C         -15.42737645110482   -6.68370017559374  -17.16565984338478
Br        -17.28460272410568   -8.04601411140934  -18.91412083052791
H           1.38830933012208   -5.84864098401124   -2.93490905766194
H          -0.55159689399694   -1.31624913646038   -3.45086679040530
H          -0.84302359477701   -6.80460076542939   -2.70640625190227
H          -2.84670767423288   -2.26542814688204   -3.21548219739867
H          -6.50311188251746   -7.27854327714560   -2.07646481054087
H          -6.96942125485375   -4.39307518303636   -2.53822529484530
H         -11.59075299973701   -4.43654483559732   -1.16276420626671
H          -9.77748484910978   -2.43292290601924   -1.74089593600643
H          -8.23238049979823   -3.60026829023246   -4.13191028287202
H          -8.96182617089769    2.29414840514163   -1.28231412245727
H          -6.88012695987327   -0.04933967603145   -7.09503336241160
H          -6.67446276323745    2.56336206285574   -5.48888265709235
H          -5.62001145444728    3.54028496302234   -7.36597755230369
H          -5.07647366764859    3.80528539110320   -9.78852230334486
H          -5.70851403581493    2.86478093737957  -12.09677902830149
H          -6.60439800244588    1.66319515093008  -13.89742218097422
H          -8.01256936267971    0.17418770753063  -15.42805288757335
H         -10.20988927953376   -2.42828567570478  -13.46906839124292
H          -9.48152866578010   -1.22433695179217  -16.19895369507023
H         -13.83661163772029   -5.63053725923898  -15.04265337036245
H         -12.92470632238515   -3.89715959171749  -19.65307603514318
H         -15.80029121255085   -7.19375156427270  -16.29631907482836
