104
 SCF done       -211.368068277716          0.000853513560
C         -15.32108857073362   -3.50792681648429    0.33207347900725
C         -15.59177061142885   -2.18459643715403    0.54518694680028
F         -16.73722950263760   -1.81982504050077    1.13382904241664
C         -14.67390447078301   -1.19053830204915    0.15023345088118
F         -14.96774217088492    0.09635415905948    0.37255127506261
C         -13.49666724173527   -1.53326336958953   -0.45475974388913
C         -13.19226796666705   -2.88764959150473   -0.69087021424024
C         -14.11804194798353   -3.89440277204146   -0.29016005948148
C         -13.83136607481544   -5.26196595721806   -0.51550696830187
C         -12.65875942560408   -5.61117674150274   -1.12880880526645
C         -11.74358805780473   -4.59509117181509   -1.53332493206617
C         -11.98745112141935   -3.26751960031527   -1.32248289418593
C         -10.59127680699944   -5.23117463269466   -2.17048338892209
O          -9.60296105049685   -4.67506290438392   -2.64910690852840
C         -10.82956355304995   -6.67271439693734   -2.13066094049134
C         -12.10168691246116   -6.91562057705246   -1.48763984667716
C         -12.69010774630869   -8.13062532627584   -1.25372845165152
C         -12.11758487579958   -9.36658433737207   -1.61754075474541
N         -11.68413977997246  -10.39161270566690   -1.89868820728292
C         -13.93974995272168   -8.29586233152149   -0.62194567121530
N         -14.95135477493941   -8.48558329877014   -0.11438369990281
C          -9.91951596789471   -7.56927591893748   -2.64232298507214
N          -8.79534074754817   -7.13121063723375   -3.22268952692066
C          -7.80160200954860   -7.88135918054871   -3.75937978689078
S          -7.93184150786484   -9.61716085160138   -3.77494083851929
C          -6.41613262807726   -9.70592676356863   -4.60852884038683
N          -5.91882617175466  -10.97795194135333   -4.93957171149383
O          -4.85504118086382  -11.02968007529940   -5.52448395922701
O          -6.59833576287827  -11.93181725837439   -4.61124009647002
C          -5.85722659996116   -8.48605753186253   -4.85670557214830
C          -6.62768962479468   -7.40393293553294   -4.36812842600195
C          -6.15875477960617   -6.06347520227010   -4.54825931977840
C          -6.61323410514693   -4.89877602941645   -4.01832969221870
C          -6.04477089306224   -3.63624213571757   -4.28964436214656
S          -4.65389688368253   -3.42172535331858   -5.29760644598700
C          -4.58581231148561   -1.70157971428016   -5.02739827980269
C          -5.67159394930773   -1.29440077957512   -4.21559149205976
C          -6.48855809274745   -2.38961333734981   -3.80226650347568
C          -7.63708204913942   -2.16201819648957   -3.02341535639454
C          -7.96252639554978   -0.87890106105950   -2.68701628770411
F          -9.07188559963903   -0.64415559246473   -1.96355848524930
C          -7.17468328242156    0.20775760004736   -3.11449647221724
F          -7.55053828080149    1.45515929224874   -2.79424617479653
C          -6.04928414891071    0.01350825626426   -3.86945966499477
C          -3.53246713101374   -0.99846355612771   -5.62027666810900
C          -3.07359645913467    0.25918239925309   -5.30132900679896
C          -2.03946161836800    0.88071505331933   -5.99496849627918
C          -1.48512954073349    2.09813858083838   -5.64785101079248
C          -0.47037911969602    2.79370592355881   -6.33645911942964
C          -0.10077187042753    3.97028231139467   -5.74832489447507
C          -0.79690789248086    4.25142103734231   -4.55651927267114
S          -1.95856635099987    2.99605189869064   -4.21825086421609
C          -0.60975645980724    5.32790737792487   -3.69889530362738
C           0.26292986660472    6.42087336225566   -3.86774866773046
C           0.25397378926644    7.29610139942574   -2.81934736707538
C          -0.61873192377524    6.92998197765240   -1.77229276293330
S          -1.45002765377687    5.44674969432183   -2.17226289906528
C          -0.76758792241390    7.58050000343354   -0.56152781313362
C          -1.61858614942366    7.14657012436623    0.44829782854614
C          -1.72099059500526    7.63081593787072    1.73487890566149
C          -2.94240880789594    7.34540339861568    2.52363069853116
O          -3.82750036173191    6.56854669275994    2.23544025863403
C          -2.86645822721980    8.23530832971065    3.69932309236304
C          -3.77551764970749    8.41850694015013    4.69959697781133
C          -3.49093168786459    9.34408136028949    5.72933771658492
C          -2.26673197475973   10.07178752557505    5.69234746170528
C          -1.98916411681651   10.99426624007054    6.71918563616961
C          -2.89462972038417   11.16715802215484    7.72895531152442
C          -4.10268797558100   10.46003723247900    7.78442887137692
C          -4.38942644920893    9.56308586304125    6.79293979136527
F          -2.62887130038315   12.04601454874259    8.71368274479746
C          -1.34152371752729    9.85868083953602    4.64245936132915
C          -1.63275467409869    8.94686479621270    3.66566692300431
C          -0.86340015589213    8.48317910401618    2.50912195943387
C           0.49110070908231    8.66956565302963    2.34493906009753
C           1.28881250215524    7.96688631500400    1.42140388653288
N           2.00116787296622    7.39026494740683    0.72808772768335
C           1.27377258492128    9.50552947531310    3.16449287616571
N           1.96054767402754   10.19198073992470    3.77862827933078
H         -16.03497409347311   -4.25500934099273    0.64209104492199
H         -12.80160952852234   -0.76296443667278   -0.75052155626212
H         -14.55135156806976   -5.99785942084137   -0.19614512557813
H         -11.27637276787809   -2.51577751418924   -1.63025885391830
H         -10.07082117545455   -8.63945746698124   -2.59242095866607
H          -8.72320208733826   -6.10337073943473   -3.26187303702154
H          -4.91642099812031   -8.37546873968487   -5.36547622854926
H          -5.29254948521416   -5.99801646140170   -5.19606976710000
H          -7.43340656708403   -4.86534912981119   -3.32164348961648
H          -8.28216434394589   -2.96800810044656   -2.71637611901718
H          -5.49896929362537    0.87335530864028   -4.20902071435107
H          -2.98595625404128   -1.54297869494531   -6.38165375006902
H          -3.48537820967895    0.78783719712289   -4.45463862461067
H          -1.63545891878521    0.39056744949496   -6.87127418439721
H          -0.04112223177586    2.40820288122842   -7.24408370831269
H           0.65932673345479    4.62520972745594   -6.13327968243363
H           0.86957500917762    6.53897429123733   -4.74729066992008
H           0.86130459783979    8.18118649314073   -2.75860823779480
H          -0.17770798392660    8.47463493523983   -0.42025473231807
H          -2.34234883169184    6.37678316974736    0.19507037923850
H          -4.70021908312601    7.86123861930459    4.70887593092993
H          -1.06688221209259   11.55387026427507    6.71070685740842
H          -4.77825804180165   10.63752800776924    8.60611239568128
H          -5.31392284274522    9.00589623352080    6.81360575960884
H          -0.42582172404602   10.42814140834069    4.63953342144232
