97
 SCF done       -202.243158418275          0.000344865422
C          -1.30512158215016    2.18823727361731   -4.27081666629617
C          -1.38358363113540    3.51068708759739   -3.93522528690419
F          -0.84155523866790    4.44008853469444   -4.73055064496258
C          -2.03549656333855    3.91345703430858   -2.75122205695158
F          -2.09858458587787    5.21591676894252   -2.45007656418182
C          -2.59959242350317    2.98739641293422   -1.91913930488180
C          -2.53769902359168    1.61672270489012   -2.23844741983868
C          -1.87796006733301    1.20825996484638   -3.43497235182500
C          -1.80385561685861   -0.16082468464630   -3.77620868528534
C          -2.37455791034137   -1.09188127844563   -2.94778879292383
C          -3.03826277293606   -0.67560763682098   -1.75896606191572
C          -3.12158693842386    0.64042527486390   -1.40162000923039
C          -3.58300875398758   -1.84870561729235   -1.05066662705324
O          -4.18741782337897   -1.84851442769726   -0.00457901589005
C          -3.30142802398997   -3.01038837586723   -1.94880971195928
C          -2.45709907044291   -2.54259827592871   -3.04100801575401
C          -1.78857472700590   -3.33880191863900   -3.92769968685005
C          -0.95274365391203   -2.84329369465771   -4.95226843880220
N          -0.26786931497425   -2.48948729107176   -5.80175241033954
C          -1.80155267161742   -4.75179644260713   -3.89804431781902
N          -1.73903174471582   -5.89707670889245   -3.90683300680832
C          -3.92801761899051   -4.20989231495816   -1.91697384636100
C          -4.74510765513016   -4.75866564869773   -0.86632339806264
C          -4.58173561032524   -4.58512423484021    0.47292903187243
C          -5.43008609230515   -5.27019404528562    1.40255883815607
C          -5.29967047451184   -5.10523091153374    2.77024488383573
C          -6.16273011432996   -5.74640881335806    3.67511184334040
N          -6.88010488130501   -6.26360027216399    4.40801697377336
C          -4.31337701179450   -4.27781454671133    3.33414764614302
N          -3.50509150417514   -3.61069958076237    3.80311363112732
C          -6.42782144569562   -6.12150130321977    0.83063957958333
C          -6.51708321513993   -6.23891846311036   -0.52062586179337
O          -5.68891520108691   -5.59497597308941   -1.37134201673410
C          -7.51188732154773   -7.00722892125636   -1.21380030594359
O          -8.37771620667267   -7.80264228473078   -0.53805924130519
C          -7.81480615024231   -7.04958212299322   -2.55629572593352
C          -7.44320618230347   -6.53645802092719   -3.88648582612978
O          -6.57529272608552   -5.77817884671576   -4.22783792170680
N          -8.36856271017647   -7.13808359627321   -4.72984831068408
C          -9.30305899532114   -7.97259125134306   -4.10732881003306
O         -10.18114815459961   -8.56766669932142   -4.67321469478011
C          -8.93251350025696   -7.90592798555721   -2.69350940480753
C          -9.25548919790677   -8.36018904621790   -1.42263211420246
C         -10.27955855016354   -9.22567881612637   -0.98534425683496
C         -10.36961254343974   -9.69233085470055    0.29561141668330
C         -11.40628242644356  -10.51219573177283    0.75796499010928
C         -11.44029533373750  -11.07223635635489    2.01424625588145
C         -12.48696000351541  -11.84755681774359    2.57154444556219
C         -12.23694802327723  -12.29380585784841    3.83373869465020
C         -10.96757136710142  -11.91651435703718    4.32909752155599
S         -10.12002613256147  -10.93824863750836    3.16010074901378
C         -10.39047051897065  -12.27580625458258    5.53616462396941
C         -10.97624740165143  -13.02185813319455    6.58375119013113
C         -10.13187124966329  -13.24994897622502    7.62854662419084
C          -8.83476818946910  -12.71158587560990    7.45037764958768
S          -8.73784281846043  -11.86457376170255    5.92217406127840
C          -7.76777231785965  -12.85249851566518    8.31301583426066
C          -6.49035348002906  -12.36860945287109    8.03250249350079
C          -5.39068771244327  -12.54350212680330    8.84399773611729
C          -4.03971625037104  -12.11291717469248    8.57462000366845
C          -3.57470348883151  -11.50518643828632    7.43249319258127
C          -2.23306904650799  -11.12098128205397    7.23340151085057
N          -1.15720274867192  -10.78884197047818    7.00736440351344
C          -4.34120570242774  -11.20583205578397    6.28781218271918
N          -4.88493657745681  -10.94679952506008    5.30931580518739
C          -3.21902001842025  -12.47844662902494    9.72726052398420
C          -4.03524994181940  -13.14574130449496   10.67306181122067
C          -5.41778722310021  -13.21802715537982   10.16023750720356
O          -6.36654209853254  -13.73082415655634   10.72040602219530
C          -3.54933707341024  -13.63102460329343   11.86212342158792
C          -2.18913737153548  -13.44912964740895   12.13401100328535
C          -1.38174001137411  -12.77752552305974   11.18617195350947
C          -1.87463462360726  -12.28628149505747    9.98280733081482
S           0.26780064752651  -12.66166843533762   11.71993122578899
C          -0.14416003671887  -13.50768776108585   13.18797637776131
C          -1.44904061133421  -13.85825551494726   13.27696169476898
Br          1.18728895787869  -13.84967666408320   14.46395184058631
H          -0.80118227184441    1.89711257474021   -5.17920259587971
H          -3.09443429433431    3.31169764752997   -1.01713868358876
H          -1.30595946173241   -0.44037041713996   -4.69074455756043
H          -3.62736502941452    0.93026562749064   -0.49321616195217
H          -3.90478677535036   -4.84095432517299   -2.79839710727669
H          -3.80819494443972   -3.93843930264388    0.85045152668277
H          -7.11139740987909   -6.66217638338835    1.46479375539724
H          -8.36963204867220   -6.98254078586537   -5.72812720061266
H         -10.99418764717499   -9.52138855441212   -1.73911100461208
H          -9.59453782272100   -9.41874280429950    1.00050793841709
H         -12.23490168850079  -10.71917913003622    0.09398427960706
H         -13.39065829150513  -12.04530954092390    2.02295475181190
H         -12.91787003133249  -12.89421663262868    4.40928036536597
H         -11.99472807133420  -13.36334828568279    6.54257231406268
H         -10.39129114925324  -13.79832265291550    8.51646605467275
H          -7.92983716557822  -13.39157369894733    9.23559704583758
H          -6.36557613252084  -11.83243996718192    7.09975387963863
H          -4.19752862169746  -14.13722593909416   12.56020828284445
H          -1.21693269931385  -11.78156340563805    9.29536900240236
H          -1.87370304790006  -14.38422598305935   14.11244040056629
