93
 SCF done       -171.486923972911          0.000195272585
C         -16.37819287456186   -3.68387072990411   -1.52736044875145
C         -17.56823156289985   -4.19045189773355   -1.08507230467794
F         -18.72438948324324   -3.63802084555285   -1.48215203283706
C         -17.59667597031060   -5.29402044794643   -0.21069221474479
F         -18.77865212002684   -5.77140936317572    0.20722022633270
C         -16.43382540835934   -5.87504045133926    0.21133108174688
C         -15.19250321439705   -5.37567520631794   -0.22614241827848
C         -15.16180278005103   -4.26120331624736   -1.11320051668841
C         -13.92664825006901   -3.74894241667251   -1.57249778465595
C         -12.76048799133991   -4.34289238455178   -1.17113735760126
C         -12.79997028261860   -5.45917970086518   -0.28500421980924
C         -13.97804818397333   -5.96512615175653    0.18587797195190
C         -11.43401245857136   -5.93133201371980   -0.05649651954000
O         -11.07376516225508   -6.86313293799518    0.66695031258158
C         -10.56253005633927   -5.04527832616882   -0.82786673300844
C         -11.36727523912419   -4.05361071319337   -1.49647857610231
C         -10.93047487042238   -3.06288539514692   -2.34309368292205
C         -11.78160454983599   -2.21635909055837   -3.07920130630608
N         -12.41127391165981   -1.51100577849809   -3.73186016326392
C          -9.58289171563332   -2.78351522132357   -2.63043259189834
N          -8.50606388123008   -2.49471973200184   -2.91284069951574
C          -9.21500827230093   -5.28238598473911   -0.96376697274375
N          -8.68174867609103   -6.38592788682409   -0.41834671933576
C          -7.44042776387559   -6.92244068299709   -0.54456583430377
S          -7.09512889040186   -8.28640887832995    0.48013801773713
C          -5.49052637576754   -8.36115209994539   -0.16821977629816
N          -4.64453841521912   -9.36899309436994    0.29571325485545
O          -3.51001285511384   -9.41071756458194   -0.14874655969679
O          -5.11042519159874  -10.13976767942277    1.12189564739055
C          -5.24640139909066   -7.39334554572882   -1.10746478833741
C          -6.35307645884642   -6.55907099515881   -1.35064411931745
C          -6.33331601843529   -5.47235014759538   -2.30399414047804
C          -5.22934160960081   -4.77290224361139   -2.61836936900801
C          -5.29566499879591   -3.59422331446554   -3.43316594960349
C          -4.27323975531683   -2.80700617161270   -3.79757890117551
C          -2.82409283624128   -3.09281310593317   -3.56895695075928
C          -4.57411912576408   -1.49334521011927   -4.49462356262177
N          -4.93040416467190   -1.64628426132630   -5.88626071980021
C          -6.19086827564592   -1.81261950042636   -6.31060078395489
C          -6.57965172853072   -1.78958992357907   -7.61756387769726
C          -7.91581573459397   -1.91915532937342   -8.04224403124060
C          -8.95728865404948   -2.51355533168834   -7.37224628709218
C         -10.32200831534140   -2.46019944702484   -7.73912771022376
C         -11.15285232606807   -3.18967497200197   -6.94336208313698
C         -10.48545875722920   -3.90451395113184   -5.92574248338213
S          -8.77683253670598   -3.55968103121180   -5.96361701951955
C         -11.04574312979513   -4.79791574302053   -5.02901702022844
C         -12.41353002429985   -5.04405126443800   -4.80332269475342
C         -12.66917649407129   -6.01912178258054   -3.88386961133396
C         -11.51214642676654   -6.61963006845207   -3.33750688296804
S         -10.07472364785058   -5.86306513700425   -4.02531586156033
C         -11.36815529617745   -7.61474519358571   -2.40563005578685
C         -12.36383082441604   -8.36724459188370   -1.75344995784115
S         -14.07952478811603   -8.22808593773489   -2.01024156939128
C         -14.39954806727805   -9.40087301837793   -0.80442941678978
C         -13.26215080976566   -9.92305195744032   -0.24861495783078
C         -12.08397500580909   -9.33766653775558   -0.79060010672392
O         -10.78112889784708   -9.66235645418201   -0.56540843263541
C         -10.37714660010114   -9.98590941241227    0.75135402791996
C         -11.03164432875275  -11.24283059093082    1.31680352658463
C         -12.47846142451961  -10.99409287861814    1.73472058083503
O         -13.38573371707646  -10.93872071332629    0.65404334370992
H         -16.37489320059298   -2.83894430990856   -2.19820486409207
H         -16.47147441862395   -6.72105744136759    0.87937942754115
H         -13.93472448554765   -2.90298202835466   -2.24080351204933
H         -13.98502592097888   -6.80931216728221    0.85847252206117
H          -8.57101144574575   -4.60630581038630   -1.50082611841708
H          -9.36746756201775   -6.91247584738600    0.15276025838418
H          -4.30666612894387   -7.32213916626081   -1.62352778254156
H          -7.26376834734081   -5.21218032880100   -2.78622233490858
H          -4.28380968406583   -5.02932175389947   -2.16334128997080
H          -6.29920573454412   -3.28941644738166   -3.69873033145087
H          -2.66023530939951   -4.09230988348870   -3.18094681915795
H          -2.40547834005766   -2.37233415172130   -2.86499853243865
H          -2.27381523992783   -2.99523900249662   -4.50486457890898
H          -3.70317586989943   -0.83572229710763   -4.43405302978607
H          -5.41303929526782   -1.00791876937807   -3.98879060414780
H          -4.18654455832173   -1.67916372994126   -6.56682810336131
H          -6.93171799906158   -1.88053238309010   -5.52768282772633
H          -5.83975899050158   -1.57096752964082   -8.37653994047358
H          -8.15753213839056   -1.50976254425230   -9.01553047933865
H         -10.65041091468172   -1.87160554830973   -8.57778625163535
H         -12.21593363239133   -3.26207096828941   -7.08202597279092
H         -13.17720757057417   -4.48026067175761   -5.30791687512932
H         -13.65701003108642   -6.32330433268591   -3.59096427334177
H         -10.36052290964627   -7.91192230019882   -2.14532417587835
H         -15.40528001717735   -9.70015910495074   -0.59262238036583
H          -9.29799013698806  -10.13571151442549    0.66602773480228
H         -10.57183146145822   -9.13042082224256    1.41271066531480
H         -10.46402237775762  -11.56446030956933    2.19013927798273
H         -11.00216723633933  -12.03816354523131    0.56908219496782
H         -12.84608204870469  -11.82507250188290    2.34172131241201
H         -12.53844840901410  -10.06816503269522    2.32610447098544
