96
 SCF done       -201.267363056447          0.000719106093
C          -4.89254398662696    3.34014892530273   -2.71366885470485
C          -6.23219734959569    3.20481289140148   -2.94801877755818
F          -6.85875146102566    4.04670532496906   -3.77659552928426
C          -6.97105458890211    2.17920408555725   -2.32158558843569
F          -8.28099636450834    2.07139783248379   -2.57003584184074
C          -6.35914158714506    1.30389249413052   -1.46874223065305
C          -4.98010213187247    1.41878371241908   -1.20492060384226
C          -4.23125980662194    2.45363683950792   -1.83939075784465
C          -2.84668574539528    2.58644155795278   -1.59177509166755
C          -2.22917664882949    1.71263985077674   -0.73411565759808
C          -2.98667172219660    0.68922139359908   -0.09686250047778
C          -4.32599123817342    0.53512361349923   -0.31977680373897
C          -2.11846977877144   -0.09420700609593    0.79490189020225
O          -2.45011353994265   -1.00496906490693    1.51949436042785
C          -0.77056610150880    0.54802348701689    0.69871436359188
C          -0.84215816668079    1.60560369137369   -0.30306212877197
C           0.22011481832348    2.29733334029801   -0.81127356192849
C           0.10803409283191    3.29222886386838   -1.80790715437001
N           0.06947737231960    4.10937918914087   -2.61158198154648
C           1.56601296571795    2.07563445631503   -0.44213142787269
N           2.67708546971604    1.92248054507921   -0.20174488491936
C           0.24840399849263    0.31319106466550    1.55418733833574
C           0.29602143339227   -0.80051444269660    2.47089740458575
C           0.70234449263054   -0.68456092086341    3.78822859041340
C           1.07932526568517    0.49868007922244    4.42371908902839
N           1.38752909395490    1.48579267226411    4.92187765764691
S           0.61241419793282   -2.19220009922168    4.65749395177099
C           0.08048100449201   -3.00717354494717    3.22456045845235
C          -0.03913463623175   -2.14161354440608    2.14455765662525
C          -0.39049558875046   -2.59497293086303    0.86420875192331
N          -0.64733641269970   -3.01599397620369   -0.17215525140933
N          -0.18493210239590   -4.33789318963546    3.14621584377262
C          -0.17320195759235   -5.28385697130867    4.12478917974516
S           0.15737165787001   -4.89567497319125    5.77708869725706
C          -0.07379478445715   -6.56438595093946    6.19413004413298
N           0.07676334067742   -6.90048378740078    7.54685790824174
O          -0.07632027440262   -8.06196559289656    7.86482117163893
O           0.35513796185060   -5.98276392397235    8.29933579815888
C          -0.37994479767158   -7.36078087223432    5.12852917449402
C          -0.44182343488234   -6.64773115201050    3.91039520556559
C          -0.71872710419746   -7.21952372570616    2.62975916535308
C          -0.98099125460118   -8.53542632078743    2.40726106053343
C          -1.22551767964887   -9.07410160856949    1.13138794883056
C          -1.48258312527014  -10.40118241933245    0.89737643946198
C          -1.71921357909259  -11.01802695986457   -0.35722899649978
C          -1.93803653826259  -12.35939524378472   -0.28713978452772
C          -1.89125690458326  -12.87886578619913    1.02785696556944
S          -1.55657215921695  -11.60699701127104    2.17364814009876
C          -2.07558336794114  -14.19059878688152    1.42823494146749
C          -2.32590266353790  -15.31789580873453    0.61522021164839
C          -2.45940940839674  -16.47917501424753    1.31643750992157
C          -2.32348619319515  -16.32779339893298    2.71606024887751
S          -2.02292468973362  -14.65417776986800    3.11390940839025
C          -2.43508822209692  -17.32589607834536    3.66357481908345
C          -2.28366492405627  -17.10675734897421    5.02926502069339
C          -2.44219879696118  -18.00394368885689    6.06220647369082
C          -1.82880353811523  -17.69727887267288    7.37597332150354
O          -1.35155109248626  -16.64045119205694    7.72636418342667
C          -1.87945652235778  -18.96320595173074    8.13732226556828
C          -1.36743608194110  -19.24434666195015    9.36993928077174
C          -1.51045444379917  -20.55037031768907    9.89143774456613
C          -2.17828036668829  -21.54152462402210    9.11619318920413
C          -2.31125233657299  -22.84373785826034    9.63754126916758
C          -1.80828119802226  -23.14647488301529   10.87191247066596
C          -1.14998722331946  -22.16498574847148   11.63836284940325
C          -1.00316615650342  -20.89318320880424   11.15950154412635
F          -0.66577927606338  -22.49008391303604   12.84590293797456
F          -1.93732843774015  -24.38601529300786   11.36612962699178
C          -2.70476771849669  -21.21704715015133    7.84367381862449
C          -2.56417367548769  -19.94322598497428    7.36398577628414
C          -3.02809058356235  -19.31465432218758    6.12470596900681
C          -4.00628606058921  -19.83041033930263    5.30591254375827
C          -4.66448140239064  -19.10698946617758    4.29224584874038
N          -5.26964222554603  -18.55486424836812    3.48678036461026
C          -4.55256621859515  -21.12036930873700    5.45339423155192
N          -5.01563750567951  -22.17012852619663    5.50703825991671
H          -4.34257367777998    4.12913861135575   -3.20243501065199
H          -6.93805833651134    0.52551965182625   -0.99686701294647
H          -2.30827006942588    3.38231734732541   -2.08065251741629
H          -4.87594387708606   -0.25115227418132    0.17448712892784
H           1.08058851313191    1.00373962779243    1.61342247211630
H          -0.47660629282275   -4.65495663646152    2.22585652418117
H          -0.54870520810683   -8.41604514334927    5.23601460926381
H          -0.70762781033628   -6.55903461665265    1.77144901624622
H          -1.00421639297056   -9.22860354338232    3.23604612620232
H          -1.20496927368153   -8.41065057163624    0.27674466302419
H          -1.71765126166131  -10.44788970560020   -1.26929433761875
H          -2.13378889184794  -12.98601820578665   -1.13826771755517
H          -2.39746087847254  -15.24628198880824   -0.45498678260530
H          -2.66081938965166  -17.43903384396891    0.87581037253946
H          -2.62914351243999  -18.32213836568688    3.29439474302659
H          -1.91833828485908  -16.13036198035941    5.33620729460553
H          -0.85998231898016  -18.48143225019180    9.94046472543549
H          -2.81564760613381  -23.60660227263272    9.06522541549373
H          -0.49650684292603  -20.15261005852387   11.75834323634020
H          -3.20040287392763  -21.99019291154384    7.27880007520896
