99
 SCF done       -205.202488547417          0.000960656198
C          -0.93937023749700   -1.40126702407795   -4.84945672498708
C           0.34316731584154   -0.94520647465413   -4.97049515146922
F           0.58402552565160    0.24745147229019   -5.52620984509138
C           1.42780965897026   -1.72218730068681   -4.51273595997094
F           2.67268600936966   -1.24879529788012   -4.64286947253329
C           1.21419003613222   -2.94591553272802   -3.94295938015140
C          -0.09614068343782   -3.44491901474703   -3.80608592902377
C          -1.19404052586621   -2.65822597798189   -4.26371607370505
C          -2.51729963462380   -3.13380931683472   -4.12830788172868
C          -2.73760644827554   -4.35902275693328   -3.55286280349496
C          -1.63452946969576   -5.14427103643781   -3.11297152984123
C          -0.34453703068270   -4.70944333250941   -3.23007294216840
C          -2.11850741887479   -6.42107413688259   -2.56652521936425
O          -1.44849820233315   -7.35218792854486   -2.18194837369701
C          -3.60811576074424   -6.37209859689897   -2.70072353555111
C          -3.97166092155917   -5.07985609695946   -3.26986366931422
C          -5.24053993438133   -4.59703191697058   -3.41873506289975
C          -6.41238688319138   -5.28726142563863   -3.03572205789099
N          -7.39959395567092   -5.78290636797434   -2.72650237780464
C          -5.54366232160064   -3.32177978425779   -3.94577403007531
N          -5.84900430361585   -2.30125067034278   -4.37079895372969
C          -4.41995548357101   -7.42849866633957   -2.48256366966341
C          -3.99931105066648   -8.63254585524913   -1.80169906639881
C          -4.26392065944913   -9.90739562230294   -2.26577987058666
C          -4.92252913582580  -10.22873507436456   -3.45304100873955
N          -5.47064345884356  -10.47314007161355   -4.43118347022401
S          -3.58817508181955  -11.13109780668997   -1.24054197885618
C          -2.98227872793066   -9.93915597202594   -0.12392943722736
C          -3.29114415763508   -8.65598691419587   -0.56964753739946
C          -2.98944196371968   -7.46110030293317    0.10314244466544
N          -2.79380930399269   -6.44724268490317    0.60465826262589
C          -2.29552334055947  -10.28843030387207    1.06586203467558
S          -2.07902102458905   -9.10134609929083    2.31037840341191
C          -1.18438098493047  -10.17585135112229    3.32301854811531
C          -1.08581432814531  -11.44591716679306    2.73333033880101
C          -1.71107333635172  -11.50988729231469    1.44601100517778
C          -1.66728739535363  -12.71501121756885    0.71802135961679
C          -1.07292152048045  -13.81046929620168    1.27546614824583
F          -1.02539932446407  -14.95914477562779    0.59023630829305
C          -0.52349974857699  -13.76521199738120    2.57667501980015
F           0.00049139588788  -14.88069735070794    3.10034498813321
C          -0.52440410901781  -12.60749518502462    3.29921442823143
C          -0.67165176557152   -9.66870369324906    4.54713189178768
C           0.44039907387971  -10.11936705260527    5.17811027355298
C           0.95799609862296   -9.62633838741883    6.40675060641450
S           2.64324417204659   -9.90090106283483    6.73781231323640
C           2.53260440890812   -9.07863114599084    8.26688931951209
C           1.23678018337891   -8.63242064168666    8.49101132440247
C           0.34624019216287   -8.95349309254644    7.45596731026268
C          -1.11240628460704   -8.63623332731772    7.54926820451530
C          -1.51941830504446   -8.43499768645452    9.00689225764852
C          -0.59341870380346   -7.39889935382654    9.64869604180501
N          -1.13380481995519   -7.09494956734538   10.99904067582576
O          -1.83464991991602   -6.11758314253355   11.09000666213584
O          -0.87228943632986   -7.85914117430393   11.89314334613105
C           0.82170727682717   -7.95329009311567    9.75520105190547
C           3.66756079118684   -8.83279681685941    9.07885772943548
C           4.84237658475160   -9.51274510787528    9.12234761923776
C           6.06961573256960   -8.84219911475925    9.64038595055734
O           6.11588349682190   -7.81446891140951   10.27492345789268
C           7.18891689290185   -9.66503002926290    9.14527247651801
C           8.53061003819659   -9.42228140117736    9.21707074639216
C           9.42967140196642  -10.34140647854704    8.63169153702855
C           8.91847223332351  -11.50080984886427    7.97741638324172
C           9.82109854019866  -12.40518590762891    7.38523270016494
C          11.16359453281073  -12.15452849094389    7.45230043560195
C          11.68584844660449  -11.02266650799238    8.09362623873838
C          10.82389710003824  -10.13406099193976    8.67345984782392
F          12.02642706532909  -13.01552111994482    6.88564799880469
C           7.52430810026989  -11.73393063837342    7.92839430383463
C           6.67394853156090  -10.83155854645861    8.50702086701080
C           5.22071670848301  -10.82143804257141    8.63179611554511
C           4.40241629764083  -11.91780652370965    8.56602260317373
C           3.05119664536434  -11.88584196271434    8.96818024684889
N           1.96081838134527  -11.88763373272500    9.32737824755248
C           4.84141704712518  -13.19904543166182    8.17585530149679
N           5.15085028657424  -14.25430976253570    7.84796842740204
H          -1.75742382406605   -0.79317321007306   -5.20280115550842
H           2.05442204266121   -3.52835998192190   -3.59884189678169
H          -3.32615495886534   -2.51825095493229   -4.48753149230257
H           0.47309785461344   -5.32332309520900   -2.88425638448265
H          -5.44100974253930   -7.42270623082580   -2.84302660842926
H          -2.08647961093708  -12.80224664135461   -0.26974787128428
H          -0.12394727648024  -12.60682417171062    4.29853162654140
H          -1.17845232376036   -8.79271056132884    4.92408412253514
H           1.05076166606715  -10.86947974512853    4.69512280110406
H          -1.69615301598740   -9.44747403343552    7.11041343070142
H          -1.32811846354183   -7.72259847082971    6.98586110820183
H          -1.43182461035395   -9.37684286988390    9.55215564650390
H          -2.55610717968362   -8.09670368224201    9.05560131218930
H          -0.62978224869426   -6.46330456193071    9.08218178281597
H           0.84893163857757   -8.68124910697543   10.57398496605104
H           1.52737320814015   -7.15575197150635   10.00384254084318
H           3.63540581306868   -7.93009530499663    9.68224504343879
H           8.90242333794537   -8.53761825994640    9.71187684341387
H           9.45486680003180  -13.28898634075974    6.88669606735473
H          12.75428618695779  -10.87783334776897    8.11505420032688
H          11.20247375095719   -9.25504488337416    9.17292106242073
H           7.16081185633262  -12.61439826041383    7.42206606505349
