100
 SCF done       -182.506855272100          0.000496344087
C         -25.12502297194732    8.30698909868635    3.53020030681258
C         -26.33266240085888    8.94180506597352    3.44230837274345
F         -26.65148288417255    9.90846295422822    4.31903712150861
C         -27.25364282121924    8.59323525222612    2.43748271095682
F         -28.43370396094206    9.23288975982244    2.37345074149007
C         -26.95491295924691    7.61324906099554    1.53231470072721
C         -25.71969480657869    6.94171632696604    1.59678580655524
C         -24.78648960301449    7.29295233429457    2.61312586079424
C         -23.53742099449790    6.63123658280502    2.69661570417687
C         -23.23382193306387    5.65099361793303    1.79168524442712
C         -24.17270700605106    5.30805550616756    0.78057110641371
C         -25.38317871559224    5.92507011467539    0.67330081870613
C         -23.60386778137130    4.23263550716916   -0.06215757962308
O         -24.15522104979119    3.71046568209872   -1.01512000428313
C         -22.27168481532845    3.95381211350159    0.49400021692073
C         -22.04731122308022    4.80785849830529    1.62102970928397
C         -20.92909729225179    4.85833897964886    2.43027459916525
C         -19.77452675607433    4.06616993321774    2.29601647321319
N         -18.79221058126793    3.46763005381699    2.27217508395533
C         -20.78862024774767    5.72834847817434    3.52611948011510
N         -20.60513500918833    6.40585704579942    4.43723210591397
C         -21.38926922344880    3.00774913673522   -0.02379747174034
C         -21.65883711256446    2.20986184230743   -1.11595760575486
C         -20.76740746825877    1.27554556108588   -1.64070003747169
C         -20.99208805073158    0.44853008611304   -2.74837229298568
C         -19.93298667525903   -0.37442901671137   -3.05495314592569
C         -18.84204081158688   -0.22152797939793   -2.19528978073011
S         -19.17393817939494    0.98578752430331   -0.98287452921356
C         -17.61860424593931   -0.90751801455557   -2.24070037489914
C         -17.21790402941521   -1.87723433276921   -3.16079546593292
C         -15.94923285044675   -2.36161109939920   -2.92807068153848
C         -15.31794091875701   -1.79113324785442   -1.82007304122801
S         -16.36170946845895   -0.61227926852150   -1.07049173138626
C         -14.03827961813841   -2.12285493663174   -1.35848237997803
C         -13.37988647663820   -1.62320561879621   -0.26744201939453
S         -14.04745704256225   -0.40243457204770    0.79459498386148
C         -12.64990490044362   -0.42242455661363    1.85238650443247
C         -11.68036786005638   -1.36041873689621    1.37428932520281
C         -12.07888542564661   -2.02180163127171    0.19158165337540
C         -11.23565497176238   -2.95689107827137   -0.40073140742034
C         -10.01081510327700   -3.22956081434101    0.18164146955776
S          -8.96837486389334   -4.42015658006296   -0.60047880606967
C          -9.61604216490493   -2.58034206765453    1.35588294271992
C         -10.44175265163517   -1.65445968768017    1.94820064845144
C         -12.55268940603830    0.35094355345502    2.97997197786977
C         -13.50153040529175    1.29479277767675    3.39105660051517
C         -13.48440951902218    2.01496208716586    4.55872496074344
C         -12.62215127236835    1.90455787128114    5.66486215573686
C         -12.67337717898462    2.71373813589057    6.80035648584224
C         -11.76342477982000    2.37871204580793    7.78548183330818
C         -10.97105362141909    1.28420292369361    7.45749231828873
S         -11.38091130743542    0.69462041065132    5.87084415224951
C          -9.97551795139899    0.65256449752816    8.22539628702666
C          -9.52294860378786    0.98521350244744    9.49840708266580
C          -8.54900477160095    0.12984325480305    9.97907370170326
C          -8.21077219989852   -0.89594243074605    9.10000420837709
S          -9.14662106475154   -0.75936981981577    7.63024073223738
C          -7.28290313731260   -1.92624739198280    9.30827004778455
C          -7.01153432749372   -2.91653190135944    8.40385786988320
C          -6.10930135786677   -3.96686097022798    8.60353094331418
C          -5.81702184640494   -4.99553542154560    7.70140961236845
C          -4.89760868652174   -5.90561292704946    8.16362133749369
C          -4.42980451621790   -5.62445600990361    9.45606281664348
S          -5.18477849375015   -4.17022906282423   10.07088732534941
C          -3.50958426035610   -6.34547375732075   10.20629430134779
C          -2.83664139490386   -7.53044583330557    9.82403074033219
C          -1.99169195532901   -8.02142516881406   10.76588792923133
C          -1.94058876476587   -7.24868194079026   11.96829402172234
S          -3.03365302909080   -5.86364197097227   11.81523251063370
C          -1.20667014968690   -7.47895422046897   13.06945701260618
H         -24.43062909041071    8.58694762276487    4.30699533792968
H         -27.67118237736262    7.35689328342570    0.76737103966572
H         -22.85441599194705    6.92314137930995    3.47766562059759
H         -26.07604905238036    5.64305384861321   -0.10497296939389
H         -20.42532070356987    2.88907711532457    0.45569232980082
H         -22.61505269668841    2.30501378562500   -1.61039219717811
H         -21.91833205769441    0.47481036769796   -3.29394567110070
H         -19.93134985637064   -1.07313154059819   -3.87191071104036
H         -17.84673572469304   -2.20561532659987   -3.96801047514656
H         -15.47169321247403   -3.11335624959021   -3.53156202690584
H         -13.52488596331928   -2.87834044811365   -1.93884799532335
H         -11.51933865512783   -3.47068912989030   -1.30548868058058
H          -7.96621905686564   -4.32994966272648    0.27224085137972
H          -8.65718358418756   -2.80749316194094    1.79852656190665
H         -10.12859675980036   -1.16046868154569    2.85452662041938
H         -11.65941121449059    0.22345578719042    3.57230827162248
H         -14.32206927716741    1.48471950946051    2.71046244848369
H         -14.25630005345604    2.76428093285081    4.68217793634955
H         -13.37312266718002    3.52625962800527    6.88550930765545
H         -11.67631124267595    2.89810880150259    8.72256765676862
H          -9.90495978820903    1.82794155967089   10.04549376386553
H          -8.08527559857811    0.22878218553359   10.94459046308436
H          -6.76416846814272   -1.92596032699340   10.25868684240897
H          -7.53232228189030   -2.90833320453666    7.45402459338736
H          -6.28635940573714   -5.05022569734185    6.73489288103889
H          -4.56029620419229   -6.75770799430874    7.60201533909414
H          -2.99855290457650   -7.98438552391133    8.86264145411051
H          -1.39666303707341   -8.91014089370824   10.65529366171385
H          -0.55352716865923   -8.33178572130638   13.12371651710297
H          -1.24667597658270   -6.82698735449687   13.92247692731586
