98
 SCF done       -200.908986609152          0.000815295043
C          -3.67885362347683    3.20463321182131    2.07322222802996
C          -2.68726611312707    3.82472617289101    2.78033300646441
F          -2.66184705472697    5.16518638999746    2.87698459217193
C          -1.67960535255477    3.07306798079628    3.41339451035180
F          -0.70808029503833    3.71019419853148    4.09144250737474
C          -1.68364897169566    1.70893578340443    3.34067497238175
C          -2.69770267638642    1.03999795510413    2.62963693954917
C          -3.71178077524486    1.79849795822229    1.97868990944320
C          -4.74381882007334    1.14398029194965    1.26450923774439
C          -4.76956220134748   -0.22446264774457    1.22857141182258
C          -3.76064982772285   -0.96940309685629    1.89970056966688
C          -2.73662541029495   -0.37099170814597    2.57425565865303
C          -4.04660197317484   -2.40747538955192    1.76099809012831
O          -3.48289563986007   -3.30696539744372    2.36006777596200
C          -5.24766140543790   -2.50220519312532    0.90850595172549
C          -5.69567030597508   -1.16697297468717    0.59980393674332
C          -6.75919565262035   -0.82809754117651   -0.20054511187833
C          -7.59336740415465   -1.75552478155949   -0.85636542116416
N          -8.30072277372985   -2.45783822409083   -1.42721247200160
C          -7.14379037361969    0.49810752538275   -0.48045727315750
N          -7.50975796408202    1.55692176242542   -0.73248641854340
C          -5.90838166978504   -3.68717566829266    0.64819070694560
C          -5.28827095409216   -4.93403968582618    0.75102826287458
S          -6.16013467565355   -6.42481626178277    1.12900081731664
C          -4.70915823044918   -7.38931222228856    1.32334543947047
C          -3.60994604768240   -6.59036513472299    0.96813941141626
C          -3.93724271084222   -5.26182806656981    0.65357912696792
O          -2.80307628915804   -4.63124991070522    0.29713331071715
C          -1.84727395606312   -5.57392392170779    0.43440073844448
N          -2.25186351360171   -6.73455096303437    0.82423139415112
C          -4.66652517704343   -8.66076017937990    1.90696710503994
C          -3.44117832841451   -9.09916857814832    2.35898569277540
C          -3.09586180909023  -10.18528708426491    3.15560153845579
C          -1.87574737223512  -10.14493771988349    3.82239243730443
C          -1.24332787351826  -11.08036216131116    4.66277824677263
C          -0.07562592882729  -10.62995111551920    5.23030032837766
C           0.24140183082461   -9.30614479412969    4.88539741394751
S          -0.93481445941369   -8.66899061982172    3.77219271643032
C           1.24493828495886   -8.43890159824445    5.31623402452627
C           2.37114145777158   -8.63942681228827    6.12941505187274
C           3.10939912318944   -7.50155546622806    6.32623450241071
C           2.58046408598527   -6.35102431060716    5.70128352180453
S           1.12971121033521   -6.76802766528306    4.82712815402089
C           3.11218174011157   -5.07336715423148    5.73598719675558
C           2.54199436711821   -3.91442959098491    5.21473994106601
S           3.47190180141955   -2.41020676361738    5.21206955938857
C           2.19069193482952   -1.44591422622701    4.50776107172592
C           1.08511751560511   -2.27778453696235    4.31637584588785
C           1.28586662560020   -3.62350307406946    4.67091732103939
O           0.13911609877883   -4.28357350768468    4.38386811815057
C          -0.67849034636055   -3.33644891969795    3.87647391888363
N          -0.18300451708977   -2.14580861629698    3.81597582298064
C           2.28904048566750   -0.12606200371437    4.07135192153648
C           3.42013837227087    0.64524928497977    4.05547929463365
C           3.50005605846551    1.93892697682134    3.51690308811628
C           2.66122239346250    2.62233930617191    2.66675941076423
C           2.78518292232510    4.10567893824780    2.64421417513862
O           3.67780105126055    4.76327864887017    3.12936119027596
C           1.58318048046758    4.59234986293929    1.94013127899994
C           1.15379195544598    5.87416981541699    1.75754244814154
C          -0.04655704559969    6.10188234594782    1.04748790942925
C          -0.76315052473055    4.99166147522546    0.51666097642713
C          -1.95822289786349    5.22192806298370   -0.19341032704521
C          -2.42653984821360    6.49505796155907   -0.35650440823941
C          -1.72008901770768    7.59229652372294    0.17393121110215
C          -0.55212279125598    7.40183385496342    0.85737383428891
F          -2.20279237604249    8.82986226464992   -0.00314742550565
F          -3.56740997088963    6.71074600141932   -1.02528303130594
C          -0.29281603655227    3.67444586689765    0.72400438505840
C           0.85751289356703    3.47569811967941    1.43984287988877
C           1.57074623282112    2.25034768611204    1.80268477016659
C           1.31708122593924    1.01907670554163    1.23761111944101
C           2.19014239640469   -0.08066589467726    1.32125623495692
N           2.89332449704815   -0.98921300507144    1.31741709370806
C           0.16842803003115    0.71565814551579    0.48481635738937
N          -0.77915696853753    0.38724853072957   -0.07683716578466
H          -4.44303803642248    3.79774591171787    1.59516692100559
H          -0.91965045992380    1.13726322769888    3.84415136534833
H          -5.49512718067033    1.74470471211672    0.77754034540837
H          -1.96744809235493   -0.95706847545177    3.05637034930153
H          -6.96072454510416   -3.67621841699418    0.39841585240136
H          -0.83276320331864   -5.30756618191703    0.21346053814973
H          -5.58500243821295   -9.19540181937698    2.09609671811663
H          -2.62151006856976   -8.42532196085378    2.13747015180737
H          -3.76543149500308  -11.01748298350066    3.31771410065146
H          -1.65516239566037  -12.05966743329165    4.83304723206873
H           0.53430514224735  -11.21181465837750    5.89850459182131
H           2.62082623627984   -9.60203908066088    6.53851430724810
H           4.00966489629462   -7.45802064630198    6.91334481279576
H           4.07453075368655   -4.95617908113268    6.21602643964756
H          -1.66480138506898   -3.61404484846268    3.55285088230393
H           1.35724384059053    0.28412431301607    3.70556360717942
H           4.31081622204989    0.25027760806629    4.52719393572985
H           4.33361508161813    2.54427560416498    3.86321880558437
H           1.71830251058110    6.70370535865896    2.15457288465640
H          -2.51044335058883    4.39124419025133   -0.60510238197913
H          -0.02344742703464    8.25210392887123    1.25843368779040
H          -0.86960372705839    2.85456931124594    0.32621429195345
