105
 SCF done       -210.372122740179          0.000953736444
C          -3.65514513387702  -13.65817359715451    5.66082324455793
C          -2.89776351906902  -14.77608945389003    5.44879615881521
F          -2.82886020126566  -15.73127831928929    6.38717096181076
C          -2.18325567639786  -14.94002678027441    4.24624157248544
F          -1.44938229128093  -16.04777928082342    4.06350537197159
C          -2.23500124180013  -13.98297715607528    3.27153453021564
C          -3.00705750015497  -12.82083030453557    3.45974974171522
C          -3.73058718140878  -12.65404359344396    4.67535234363982
C          -4.51588988895524  -11.49620982505306    4.88514962886706
C          -4.57698863738834  -10.53969383760426    3.90783871888170
C          -3.85427111797394  -10.71605068919033    2.69502753996237
C          -3.08495907473741  -11.81854477009230    2.46576092603259
C          -4.11087580381502   -9.56407679290835    1.80314090612626
O          -3.64322853386551   -9.39362532449169    0.69486186145550
C          -5.06357147422183   -8.70384826696858    2.53360598536456
C          -5.29592846139725   -9.26837958911080    3.83566409623903
C          -6.01255315387355   -8.70430094337565    4.86747351308289
C          -6.63145264136263   -7.44360138864848    4.83015274524416
N          -7.15111887943043   -6.41923678859608    4.88762930712012
C          -6.18708776289125   -9.30723099548274    6.12890050799807
N          -6.36609317974487   -9.74615186435378    7.17521576724921
C          -5.67834335988068   -7.58841880547717    1.99947466519422
C          -5.37762993129765   -7.02366980547314    0.76532303945727
C          -6.06815585052489   -5.94791476822389    0.24369588114565
C          -5.77955635654401   -5.26519330144246   -0.95955950421460
C          -6.62684684686256   -4.23378735584977   -1.23167289452395
C          -7.62529473237884   -4.04869155380712   -0.24967451831370
S          -7.46783291289006   -5.24300196569832    1.01225751845262
C          -8.59892224260796   -3.06704245657311   -0.22256746709133
C          -8.89330611630546   -2.12498235486883   -1.23317563969314
C          -9.89481844479058   -1.26202969174295   -0.91555438196461
C         -10.43476807473498   -1.45879074252747    0.38067889020097
S          -9.65161983658053   -2.83655874716628    1.15341044960089
C         -11.39390966157771   -0.68532503092579    0.96463999096037
N         -11.85744436628826   -0.85600453298649    2.22668718108083
C         -12.75171280833867   -0.07162792182551    2.88737867440102
S         -13.66696174581589   -0.78499869282716    4.18311041934719
C         -14.56495361736830    0.69117417303186    4.33983739548132
N         -15.56754449464729    0.74933690902730    5.32064222145281
O         -16.18582949106783    1.79083522470567    5.42930448440663
O         -15.74954883110316   -0.26016074657545    5.97517266153424
C         -14.18248201070972    1.66186763332685    3.45793611183891
C         -13.12066864497583    1.26011521782573    2.61875948995946
C         -12.44641856773146    2.11143694154259    1.68544754443187
C         -12.96707983721615    3.23985231883161    1.13317500971676
C         -12.34583737522231    4.05189478833239    0.15802772472283
C         -11.18388230551075    3.83928698351360   -0.54309329455085
C         -10.66477030826332    4.69876553723419   -1.54810598381152
C          -9.51304024165903    4.26784404848243   -2.13408263421836
C          -9.03878957259385    3.04233659272103   -1.61742269472258
S         -10.12269239191954    2.44844512718559   -0.38473399067078
C          -7.87643194963274    2.34976466607158   -1.89795093228434
C          -6.81702555088663    2.64416881232230   -2.78003651605179
C          -5.76003763476668    1.78927161098304   -2.66485526076371
C          -5.90689788420314    0.80239346784146   -1.65786806123392
S          -7.49536918584673    0.92064533910012   -0.95942571492750
C          -4.95484001883884   -0.13812571844185   -1.29755151471011
C          -4.93547194878064   -1.03259621964603   -0.22981451709338
C          -5.65828667580279   -1.11111582889817    0.94913133529115
C          -5.67732813766238   -2.40297241996794    1.67948515030291
O          -4.99979744092538   -3.38190325960888    1.43832792996342
C          -6.73370596825636   -2.26879708944597    2.70560586763479
C          -7.22751685356680   -3.19345283448039    3.57974223490692
C          -8.33476555765760   -2.84717914974464    4.39056158921114
C          -8.89976906878906   -1.54470642299161    4.28838493935703
C         -10.01822612392800   -1.22014393304119    5.08049482687619
C         -10.54689206661737   -2.14581396955439    5.93756172874111
C          -9.98486042869352   -3.43327921247983    6.03777083987962
C          -8.89853194384854   -3.77915745465102    5.28201550957477
F         -10.53287255750774   -4.31742835063956    6.88199888348565
F         -11.61495120703548   -1.82695489167120    6.68387143077830
C          -8.33750746152906   -0.59259883308193    3.40611664378234
C          -7.26719053985649   -0.95005312413387    2.63564025509695
C          -6.47884314436804   -0.18891770866037    1.67000532180971
C          -6.42618952136528    1.18949795789406    1.62300907796987
C          -5.41428102481086    1.89686816984246    0.94937337203326
N          -4.59473979653408    2.50137162363391    0.41844317236979
C          -7.33376703881151    2.03326736305953    2.28722904681773
N          -8.08660959646460    2.76750845482749    2.75085477366246
H          -4.19590633324417  -13.54779163765435    6.58782936059956
H          -1.68211159051837  -14.12378148202923    2.35596694575641
H          -5.05458270470102  -11.40196418351791    5.81407596088692
H          -2.54549511349596  -11.92811048277165    1.53722635918652
H          -6.46569147743738   -7.11299117958593    2.57228765266405
H          -4.55975857260103   -7.43017724816000    0.18826082727202
H          -4.94425879538520   -5.54914319478946   -1.57405239365711
H          -6.54399939049694   -3.59001768313504   -2.08891385617976
H          -8.36023598457797   -2.11481975770291   -2.16608908016967
H         -10.25478675738093   -0.47745995906836   -1.55560254831218
H         -11.83526146626204    0.11258200807627    0.38882190506484
H         -11.56039380932482   -1.70197031691369    2.70332547263108
H         -14.62968478335564    2.63879754693431    3.45426996707132
H         -11.43216372492939    1.83123212746425    1.44952315408221
H         -13.96268166669133    3.54679121844684    1.42299763062865
H         -12.87907710104274    4.95497458177112   -0.11176210801295
H         -11.16336007318308    5.61745511672695   -1.80284233178061
H          -8.98715190754881    4.79903619994893   -2.90665149548625
H          -6.85161656843367    3.48068562818455   -3.45422941784007
H          -4.85112348289763    1.87049434749812   -3.23347335044021
H          -4.11304672889849   -0.20346585705368   -1.97669573248884
H          -4.24159801651392   -1.86223397666595   -0.34140297347698
H          -6.79932524199255   -4.18013588064024    3.66132262134448
H         -10.44824277935727   -0.23131303402770    5.03014452180843
H          -8.47070101559905   -4.76655135339384    5.36396860991570
H          -8.77436627084037    0.39208397357730    3.35511114326654
