96
 SCF done       -196.037694961320          0.000825914796
C         -14.41688343658435    5.29274323628273    3.00391503137757
C         -14.65552214705848    6.31535762347313    2.12839817276583
F         -15.54329696407522    7.26911368738761    2.43376026506842
C         -13.97305283951729    6.37909001642086    0.89687333245160
F         -14.22615292687692    7.39193815789234    0.05855035509040
C         -13.06156440540040    5.41849297749437    0.55723744000315
C         -12.79528748356499    4.35198544899115    1.43745436132215
C         -13.48384505325465    4.28704968048583    2.68335824591670
C         -13.23323436344875    3.22482909306177    3.58325394230835
C         -12.32532658294326    2.25735794677568    3.24671884038336
C         -11.64231104641750    2.32926080805433    1.99723475867539
C         -11.86156892450532    3.34384060567770    1.10982216755891
C         -10.74192140315124    1.17665129237585    1.88380591584366
O          -9.99339530053289    0.89769320314387    0.95051421645168
C         -10.90892293608161    0.40274562225903    3.11695877151583
C         -11.87673710096896    1.06301217715461    3.96200237540765
C         -12.30671033767006    0.66019919496874    5.19884395663445
C         -13.26076997453285    1.35397851163891    5.97140443780495
N         -14.03263527822438    1.87514530159441    6.64207465204137
C         -11.84645337326776   -0.50061883784880    5.85378598360566
N         -11.49655903603417   -1.43730577375135    6.41749252877614
C         -10.21170927924666   -0.76243020464791    3.33019504561139
N          -9.36489232707292   -1.21349108016111    2.39956506225923
C          -8.61814349479568   -2.34495440757822    2.44711550046915
S          -8.65257148001464   -3.39884497168300    3.82650967861776
C          -7.53325753058621   -4.44623964774173    3.01955339656215
N          -7.11376819022601   -5.60482718582419    3.69230074000337
O          -6.33333409008886   -6.33727609694681    3.11577171850051
O          -7.57034978372013   -5.78672800791968    4.80547999034328
C          -7.16578855921643   -4.01100158955520    1.77589001106181
C          -7.77958210556882   -2.79351709765732    1.41825181441096
C          -7.58171223962478   -2.08643444895348    0.17829350203563
C          -6.96913512384343   -2.61781209812591   -0.89513420241029
C          -6.72111592788207   -1.96991788719967   -2.16262150917015
C          -6.88094384248770   -0.58098820000734   -2.35555883286918
C          -6.62013071079862    0.03581389924859   -3.55584374979712
C          -6.19400805872170   -0.76207373608893   -4.61587221130559
C          -6.04676068399272   -2.15950130935461   -4.42856991527048
C          -6.28896445401328   -2.77381127093570   -3.22345292057529
O          -5.63892514145892   -2.69212593461932   -5.60488315365082
C          -5.54769664658030   -1.62353721789506   -6.44748888603470
N          -5.86253779619482   -0.47397327333441   -5.90236814075752
C          -5.14672331144154   -1.79724934080806   -7.78679076967044
C          -5.00139292466601   -0.72415267788546   -8.62149465345773
C          -4.61058326994465   -0.75227923712708   -9.98741716237041
C          -4.52278569104634    0.47701166850648  -10.55619174225579
C          -4.83404202137387    1.53662633802656   -9.66542943441961
S          -5.26862448932949    0.91596569786642   -8.08343024294132
C          -4.78940954771266    2.88625155987424   -9.95922413143155
C          -4.45698522389804    3.48077712214044  -11.20046850724864
C          -4.46416816033539    4.84122245906095  -11.18437185281755
C          -4.80157793943455    5.39941704929091   -9.92482326380188
S          -5.12553103124867    4.12444302257152   -8.77239748618774
C          -4.87260584747943    6.72948520906171   -9.55693448970638
C          -4.59666669847357    7.77312002362526  -10.43992588586207
C          -4.61679204806192    9.11435410755149  -10.12181172072478
C          -4.32140943921793   10.20503189010102  -11.01826744445710
C          -3.99800982923889   10.12113730517798  -12.35337636100133
C          -3.72147038938209   11.23366262887063  -13.17279420073728
N          -3.48567534119086   12.09437266751192  -13.89564527667252
C          -3.89502978156749    8.93144702676609  -13.10016582120115
N          -3.79118095062504    8.00869105949323  -13.77816001691100
C          -4.42579604280540   11.44704064583710  -10.25619177709885
C          -4.78707787933190   11.13334747558978   -8.92315121205897
C          -4.92692360191666    9.66785086218935   -8.78732640201136
O          -5.23164264368951    9.06457122543360   -7.77805959846805
C          -4.95759102556198   12.09308850127159   -7.95646288468297
C          -4.76034141958585   13.42975958894365   -8.32095943209762
C          -4.40022610032424   13.73367497053415   -9.65454870241552
C          -4.22947988435311   12.76179682838073  -10.63340014735626
S          -4.20279530506832   15.44415581673497   -9.88984000382495
C          -4.60054966423715   15.72342108505138   -8.21540892770857
C          -4.86859425048038   14.59602449075470   -7.51490818518295
Br         -4.62393319122618   17.47719309789509   -7.55023298212199
H         -14.94782221028782    5.25910859542394    3.94244784331581
H         -12.54796395506130    5.48188131237251   -0.38927879209993
H         -13.77006092740570    3.20448098331247    4.51775501472810
H         -11.33185183601491    3.37644525045512    0.16991409226396
H         -10.32042614925567   -1.34948263496166    4.23301483240662
H          -9.31358185130940   -0.60866196144047    1.55851708331727
H          -6.46632055625684   -4.55501691445226    1.16879767912893
H          -7.96860102066207   -1.07902220069055    0.12956617395014
H          -6.63648145254169   -3.64570191031034   -0.84721515922199
H          -7.20617716859227    0.02491323147548   -1.52473509744972
H          -6.73536831700728    1.09897000031156   -3.68669694089508
H          -6.15906240401174   -3.83785796986513   -3.10447267648944
H          -4.95214438303155   -2.79931177053874   -8.13387332205512
H          -4.40771242685589   -1.68012948296504  -10.49194171983291
H          -4.23702337103500    0.65021422346445  -11.57782159612655
H          -4.22144876591573    2.89378946436274  -12.06943393239685
H          -4.23413499104438    5.44774107600863  -12.04182302813808
H          -5.14176904863053    6.97041742244359   -8.53914288310017
H          -4.33669776112683    7.50842586154584  -11.45371857515833
H          -5.23274640832416   11.82213368757916   -6.94923365165615
H          -3.95334432569925   13.04606920786308  -11.63485990025670
H          -5.13121734530408   14.58521615433374   -6.47286741441712
