93
 SCF done       -200.753237416949          0.000940929910
C          -0.71944431741297    4.47838662521899    5.43024114150175
C           0.19836627059669    4.66383044691872    6.42632273543727
F           0.70992263728754    5.87993819707797    6.65188002609723
C           0.61672585335641    3.58179809272755    7.22680311210820
F           1.51632678665877    3.79247714021366    8.19578630603080
C           0.11149277894082    2.32843992858816    7.01972077211147
C          -0.83569856514222    2.10597479238259    6.00182514529110
C          -1.25971431075256    3.19912944349335    5.19195539224235
C          -2.21235699823340    3.00015129198163    4.16565089376456
C          -2.72546170651144    1.74812569448343    3.95666753892761
C          -2.29514238296054    0.66041301061041    4.77169732886553
C          -1.37679093394404    0.82182493971319    5.76875018434044
C          -3.00121661681410   -0.55699662769699    4.35001087937545
O          -2.90092781612485   -1.68424744089107    4.81779384339914
C          -3.88842172075463   -0.15241905753113    3.25398267576899
C          -3.71288017110834    1.25716066158505    2.99594007259723
C          -4.33051111772825    2.00665539500294    2.02830466812679
C          -5.27264844353566    1.50484954027677    1.10977555830803
N          -6.04209385798765    1.14829622309329    0.33486454119979
C          -4.09489607196737    3.38147593244609    1.81914920870377
N          -3.94533068651856    4.49800514656430    1.59954993910624
C          -4.75117879207222   -1.03955453067875    2.66007369238905
N          -4.77538373272170   -2.32519585201501    3.03337035647305
C          -5.59733182083782   -3.30252682471334    2.54899294661276
S          -5.96929295122617   -4.65568086194106    3.56917140173607
C          -7.04714935515351   -5.25287576286933    2.35227717080844
N          -7.70699637796763   -6.46717190170300    2.60772067870067
O          -8.45822644670054   -6.89243960565034    1.75482932693256
O          -7.46465304187534   -7.00057620993036    3.67497737995303
C          -7.11174430954804   -4.45943991756668    1.23865270468647
C          -6.26502031166208   -3.33680278355771    1.32372409449292
C          -6.04525557440736   -2.39634444544357    0.24790958287345
C          -6.99723714929896   -1.98574490554059   -0.60671487403703
C          -6.76521502185763   -1.05345541781782   -1.65950281470896
C          -7.74201954512916   -0.39094977300647   -2.38855645243428
C          -9.10417772341772   -0.59335967920060   -2.10933331353721
N         -10.19337409778685   -0.78960582051404   -1.81001999550059
C          -7.19667787660590    0.51547920634202   -3.33456155559853
C          -5.80595763992610    0.51258485778258   -3.28521119147748
S          -5.15128304917241   -0.57629495479523   -2.12965878706194
S          -5.02838102551433    1.61463820014088   -4.37417116383246
C          -6.59977695934009    2.10655370456187   -4.91781220856605
C          -7.66166794572769    1.44802273623398   -4.30744879612192
C          -8.90832954494402    1.88743329589154   -4.82797003527936
C         -10.11887074399084    1.22045495885619   -4.57915517378626
N         -11.04722437147204    0.55698284280897   -4.45463240147986
C          -8.75314284565912    2.88376903233745   -5.78557023566482
S          -7.07647487874861    3.22361391910732   -6.14172822735372
C          -9.77721999331737    3.61239604488330   -6.45804350351400
C          -9.52194726443071    4.26484743522859   -7.67650407615619
C         -10.55552853655944    4.93292220187083   -8.43455142812452
N         -10.24886999517140    5.48776884443073   -9.59971131693368
C          -9.00810993280729    5.44918813629560  -10.05551131909741
C          -7.98411275345474    4.81971118151951   -9.28779882502851
N          -8.26209474453154    4.24812082246832   -8.14172983642934
C          -6.64714979987254    4.80420270880716   -9.76056387253639
N          -5.57803047165558    4.80404681529131  -10.17046834650478
C          -8.70941046365479    6.03513576453006  -11.30496392635286
N          -8.42484182032876    6.49599299732781  -12.31619174717235
C         -11.89684435375397    5.01476869003683   -7.96164194108066
C         -12.11469409808020    4.44265988762859   -6.67444953615200
C         -11.07998089305489    3.76909027988445   -5.93494683716477
N         -11.49927603681863    3.38765992256865   -4.73187319438575
S         -13.04490142589290    3.78130132353875   -4.56176745659945
N         -13.25663883734518    4.48711007449809   -5.99395719602353
C         -12.98227010157964    5.60663314850694   -8.61494283995679
C         -13.10822474014943    6.23160914168876   -9.84161738676565
C         -14.35336108458226    6.74254704725799  -10.29238818700937
C         -14.32207611330705    7.31497601240438  -11.52749756980043
C         -13.03945485085593    7.28334498387840  -12.11298074867981
S         -11.87825014777140    6.51172389600629  -11.04289809910352
C         -12.65300613819569    7.76198023270685  -13.35015945099101
C         -13.47345824416321    8.40226216506118  -14.32339178272057
C         -12.81690329180162    8.75820833554440  -15.44948336747430
C         -11.42115352756180    8.42283491059333  -15.44403601454915
S         -11.01208855439665    7.62802525512058  -13.91379124109235
C         -10.51940698642542    8.64505340344896  -16.41063059606332
H          -1.02874841904381    5.31751090597861    4.82679317292924
H           0.44180311732065    1.51096185033603    7.64131342706344
H          -2.51471132077778    3.84809869783448    3.57270829061478
H          -1.06849242828681   -0.01789003923082    6.37280226112233
H          -5.45630952238298   -0.72886628647165    1.90182056109961
H          -4.15105486056074   -2.54171200904114    3.82813436698165
H          -7.71933774743572   -4.69972316520415    0.38527622832949
H          -5.03689809335625   -2.01540054677167    0.13901377275101
H          -8.02286397582490   -2.30784113877467   -0.48435622335758
H         -13.90033240885792    5.55079737817129   -8.04035676201481
H         -15.23663958442991    6.66545828384633   -9.68278244043376
H         -15.17768551738873    7.74735237962455  -12.01501912691836
H         -14.52074620973305    8.57333457188570  -14.14897370979375
H         -13.26312932237181    9.25001913462895  -16.29543817555062
H         -10.80270512348889    9.12695564956308  -17.33016538256840
H          -9.49302885858118    8.34589978716335  -16.29996268912538
