95
 SCF done       -214.314365119408          0.000715761071
C           3.33336285079913   -2.56775927251316    5.27602387691652
C           3.10802703160424   -1.43201607318708    6.00197470836662
F           4.13486452865859   -0.75999985700936    6.53733880712786
C           1.79648980780509   -0.95319276423017    6.19684167836539
F           1.60568677128005    0.16295752189238    6.91238608823955
C           0.72804279390121   -1.61800832602409    5.66376793560023
C           0.92769226401461   -2.79169706099582    4.91093644161661
C           2.25347184993679   -3.27560895286819    4.71092131605186
C           2.47985303602530   -4.44840284622534    3.95485632524186
C           1.41331655429656   -5.11724939539680    3.41456098691576
C           0.09202595473339   -4.63455170564961    3.63299646662734
C          -0.15837974785127   -3.50266216687393    4.35514290569399
C          -0.86468704067164   -5.54413748974028    2.98590529495259
O          -2.07560079160800   -5.41272281407496    2.94072909859355
C          -0.06952420708275   -6.64014687195090    2.41540463843515
C           1.33992758111316   -6.33074705656784    2.60498926536571
C           2.41225569153022   -6.99018361981303    2.07307345285405
C           2.35416039641558   -8.14556715522453    1.26405005476911
N           2.40560438115235   -9.08919698232567    0.61254454955237
C           3.75175809861801   -6.57135125528147    2.23821812278548
N           4.85301088613385   -6.26065127993260    2.31868661979070
C          -0.57944543326086   -7.78569094308003    1.87409212911960
C          -1.92151724429711   -8.16000720345257    1.65536407076513
C          -2.25141517766508   -9.43256879410336    1.15867810203530
C          -1.27616581559665  -10.43691554492552    1.02572061817655
N          -0.45608871850446  -11.23789472669334    1.01154925045017
C          -3.63396648234148   -9.60163899964307    0.96186000230944
C          -4.33508529780232   -8.45389694925790    1.34509109031936
S          -3.34479390790995   -7.17021454973931    1.91899459522885
S          -6.05970732801581   -8.60009914631820    1.23092793316784
C          -5.85032461505091  -10.22564252443250    0.64997716388413
C          -4.52318157888501  -10.62729226225933    0.52535342848007
C          -4.43108749093374  -11.94276145360330    0.00809208382438
C          -3.24006739160243  -12.53673100123832   -0.45262528408385
N          -2.27349640342814  -12.91608913687974   -0.93761693422303
C          -5.68060505626588  -12.50745505920935   -0.19072515206373
S          -6.98857225735519  -11.43359175420603    0.18923267752600
C          -5.85976351607870  -13.86559020360964   -0.59693644818939
N          -6.92425583500698  -14.43315091562157   -1.06088037466938
N          -4.74050754808491  -14.67715186464685   -0.47228793249459
C          -5.08984497692278  -15.82850061622416   -0.94621646708737
C          -6.55602729667425  -15.79105502139488   -1.35466805375301
C          -6.84864516797939  -16.19629451730330   -2.75390609023007
S          -8.22945585594706  -17.11072277818157   -3.01768346691064
C          -8.42426436742175  -17.69496550345459   -1.47754616401505
S          -7.47944287562375  -16.96060759181234   -0.23476892337644
C          -4.17485881845663  -16.89715282457128   -1.03760656432125
C          -2.86954097697071  -16.79311449298004   -0.57538891471073
C          -2.41541672047655  -15.80602089371992    0.31823661875300
N          -2.00678124856491  -15.14427307331282    1.16044305125438
C          -2.11236361387706  -17.93493228803544   -0.90538712160211
C          -2.87401724954517  -18.92558486054551   -1.51920899417557
S          -4.50112336628215  -18.42799885792541   -1.81418067636352
S          -2.01549720793659  -20.42262160492089   -1.75039393271448
C          -0.60272631610248  -19.69655452117527   -1.02929045239184
C          -0.78261292022683  -18.36477237308469   -0.68087102762661
C           0.39512987224204  -17.77753049454381   -0.17398448254254
C           0.59464730009614  -16.38994853106239   -0.06030412244804
N           0.81434287369404  -15.26438668442161   -0.07407711560822
C           1.42032471116097  -18.70193793757847   -0.02515721711271
S           0.97903668709731  -20.27282176156687   -0.65206089756351
C           2.67399154847589  -18.37593835594173    0.58181073651389
C           2.76865551238052  -17.42020503332787    1.53726959289818
C           4.03606701304730  -16.64775895632933    1.76809873772903
O           5.15808159391021  -17.01282977360010    1.52667302515759
C           3.56872288108717  -15.33161587697300    2.25342290099479
C           4.25257075889399  -14.15246384766609    2.36239183378764
C           3.54984363892413  -12.98385263099158    2.73792615924824
C           2.14467989305340  -13.04939805351313    2.97479827926372
C           1.44081916770783  -11.87367075915068    3.30301143151372
C           2.10818208224821  -10.68955180401502    3.40934619653359
C           3.49868532945435  -10.62396686556512    3.19725176544879
C           4.20701487885756  -11.74293823205829    2.86273911474201
F           4.12048305640103   -9.44205909028204    3.33742226121732
F           1.44508738669956   -9.55973528577158    3.72836027135684
C           1.46388650767512  -14.28042015757238    2.87518857934961
C           2.17410092252794  -15.40029769068875    2.53770420908602
C           1.71485970475070  -16.75634477747611    2.29782465703701
C           0.60931319519987  -17.33196583609364    2.85554850443819
C           0.22635922984810  -18.66672265668046    2.61746317348637
N          -0.11716189817837  -19.74574294049770    2.42807728995149
C          -0.24162779966172  -16.65961281312643    3.76039087617610
N          -0.94250882369723  -16.17945898280720    4.53023141513590
H           4.34326999489762   -2.91999632898507    5.13520840460209
H          -0.26942638663791   -1.23924959037106    5.82282608988938
H           3.49339301376709   -4.79222815361903    3.82842606529594
H          -1.17045463350831   -3.15771362418668    4.50298187310686
H           0.12775254047177   -8.55110615494956    1.57494679856977
H          -6.52116929731507  -15.55167099105803   -3.54809600306532
H          -9.18502375864151  -18.40005797248444   -1.21824996521301
H           3.58014829076973  -18.83623800516364    0.21032765667378
H           5.30897576095406  -14.10421629833479    2.14571680789709
H           0.37490056862055  -11.91298869331893    3.45619860611168
H           5.26939430027621  -11.66838546324446    2.69152673839332
H           0.39500976106486  -14.30790261962552    3.01423727834621
