95
 SCF done       -172.955075295101          0.000981859649
C         -16.28648063430703   -1.39855774339402   -4.00363424653327
C         -16.48610346323137   -0.51617544097494   -5.02958554777045
F         -17.71436009421545   -0.03728554596337   -5.27804076298122
C         -15.40999843905254   -0.10208925564943   -5.83524570926985
F         -15.63271748314252    0.76090573288667   -6.84171552191280
C         -14.14731519226849   -0.57256493339285   -5.60579165230507
C         -13.91028602902987   -1.47938591508770   -4.55714497685995
C         -14.99785399983595   -1.90272711973839   -3.74068321987097
C         -14.78187932640779   -2.81600907646618   -2.68149884140647
C         -13.51807473755995   -3.28738819307240   -2.44730231389923
C         -12.43580097763848   -2.85510766786716   -3.26889919515258
C         -12.61258216975575   -1.97740823037447   -4.29903537719362
C         -11.20362222164998   -3.49917989797148   -2.79889565136486
O         -10.07104689744001   -3.37094586805113   -3.26188272656754
C         -11.58331914080743   -4.33282041502800   -1.65845042759882
C         -13.00389682513876   -4.21695620656200   -1.44333158672993
C         -13.75333841871055   -4.85775237680253   -0.48645367202559
C         -15.14476480431350   -4.70361286273029   -0.33649773681629
N         -16.27762699348977   -4.61780062235222   -0.16667001781756
C         -13.22285840333224   -5.75764313503039    0.45783556321945
N         -12.83186502870042   -6.49102117013212    1.25083555626588
C         -10.64673060637008   -5.06698401597836   -0.96333596884046
N          -9.36341902491661   -5.02342202783037   -1.34147624638412
C          -8.30870792962830   -5.66088459037435   -0.78558427917691
S          -8.48869989934072   -6.70672622692156    0.59043556360581
C          -6.78008616658061   -7.01096973148275    0.54891655252537
N          -6.24079662624446   -7.87063544994963    1.50819081387799
O          -5.03913309064511   -8.08054057916818    1.46710633684668
O          -7.01536775922049   -8.35051009626203    2.32040912465795
C          -6.12591668640793   -6.34922404484914   -0.45694100956892
C          -6.98460411539028   -5.56060724076637   -1.24386429387900
C          -6.59365321624845   -4.75118591140118   -2.36588873307732
C          -5.34557446625630   -4.66669329713282   -2.86611716346300
C          -5.03157024264050   -3.83704882749303   -3.99098985466251
C          -3.82124289321352   -3.72248911767920   -4.56182938527433
C          -2.61308087840884   -4.48574157110741   -4.10667101634626
C          -3.65137560018537   -2.85816527103391   -5.78793999240024
N          -3.81611128155701   -3.65623208106393   -6.98571914985016
C          -5.00749287424137   -3.82443739949488   -7.58756275519547
C          -5.26551200080216   -4.79556951342674   -8.51070817999851
C          -6.45873444359856   -4.97346510160518   -9.23094459817446
C          -7.62357869025877   -4.23836681795469   -9.22594509852111
C          -8.75452272539296   -4.51885766855829  -10.02604110329420
C          -9.78847303520635   -3.63684094560114   -9.88660110604042
C          -9.53633666051985   -2.60674174928597   -8.96390306899547
S          -7.94822541308502   -2.80060618259023   -8.26557458373845
C         -10.36193844747882   -1.54211336597026   -8.61978150166564
C         -11.63521083443323   -1.23900332993634   -9.12407462368290
C         -12.18068921500474   -0.09109791963812   -8.60762977026251
C         -11.36310777500059    0.56126725003440   -7.67024777709249
S          -9.87295438674569   -0.33302778606492   -7.45336978982505
C         -11.59256516949428    1.73143794925161   -6.94940645350671
C         -12.74703852478300    2.48387251855415   -7.00477959072453
C         -12.95973075036646    3.64568174908527   -6.27321353213998
C         -14.12504799072922    4.42993357858769   -6.26671826806248
C         -14.05678693774799    5.53198098310960   -5.45814627454407
C         -12.82500558556665    5.66967994074380   -4.78944856881164
S         -11.75823567761212    4.34615903833220   -5.20832493609861
C         -12.43300679498793    6.67559690203449   -3.92463321871527
C         -13.19272852511303    7.79765444262061   -3.50937524628681
C         -12.54235931186248    8.63048616016816   -2.66058553808383
C         -11.20784227471598    8.22227423578711   -2.34075443580281
S         -10.84557501645425    6.71010591117572   -3.18810089762572
C         -10.32496101122288    8.83892339779540   -1.53972764355078
H         -17.12245582587357   -1.70730800151139   -3.39568220712090
H         -13.33195762276286   -0.24545759065817   -6.22976934687243
H         -15.62451723430068   -3.11754161898116   -2.08089550010041
H         -11.77786658130313   -1.66322997192201   -4.90739750961086
H         -10.89951892584006   -5.68434861613239   -0.11183631380979
H          -9.20248864220488   -4.41046800774986   -2.16358873007182
H          -5.06535058915095   -6.44291104813293   -0.59763628096028
H          -7.37009149947146   -4.16884006442808   -2.84429610749300
H          -4.54148507818853   -5.23377427007436   -2.42392570037564
H          -5.85561739959453   -3.26256668970312   -4.39471453513822
H          -2.79933701927507   -5.55909535774563   -4.11675817460998
H          -2.34783472730437   -4.20597685720806   -3.08771250770833
H          -1.75754506901742   -4.27886019171793   -4.74503035255270
H          -2.65543628047391   -2.40573540537056   -5.80676984336127
H          -4.40026851039939   -2.06433729329435   -5.80750268245567
H          -3.11999518014872   -4.37376808115832   -7.13766880700022
H          -5.75591312537894   -3.09519937458108   -7.32028329891322
H          -4.47662554825137   -5.50650280961733   -8.72254531206478
H          -6.47165687015771   -5.81944148405866   -9.90745659691213
H          -8.77020619431935   -5.36444414368033  -10.69132845307621
H         -10.71519648327531   -3.70352073717196  -10.42735864914580
H         -12.12236209908033   -1.85732741257599   -9.85641645804531
H         -13.14433137110492    0.29090418314062   -8.89379465105139
H         -10.80275009677621    2.06496996884750   -6.28846527385997
H         -13.56082239389737    2.17199421473917   -7.64419239586940
H         -14.98549155732726    4.16078884250560   -6.85389960821377
H         -14.85658030044009    6.23954440426029   -5.33459214550877
H         -14.20033937063352    7.95114332845885   -3.85341597914022
H         -12.95794445474132    9.52947905668537   -2.24147059609203
H         -10.58382648342720    9.75733575066425   -1.04334034074563
H          -9.34081562976645    8.44193502522842   -1.37125031659377
