100
 SCF done       -194.794283959205          0.000437863041
C         -15.62544310704529    3.72752415006806   -1.56067459387378
C         -15.82510338595377    3.99862377439983   -2.88501378622099
F         -16.85032424461637    4.77608190138568   -3.26471194065877
C         -14.96024460562637    3.47471174101141   -3.86625221772129
F         -15.18176751239611    3.76837811154437   -5.15772869205345
C         -13.90585838241705    2.68322193255690   -3.51007651745119
C         -13.66715020065674    2.39624251107675   -2.15204534959781
C         -14.53565485126736    2.93100111884553   -1.15678919935943
C         -14.29437359214170    2.67891213298118    0.21512253711032
C         -13.22360486850913    1.90475186768976    0.57341469422615
C         -12.37848878817287    1.35687426423811   -0.43605043362083
C         -12.57208256355226    1.59223489931887   -1.76687921989179
C         -11.31845423398521    0.58373805136666    0.20603694022095
O         -10.46848731891477   -0.11746038506118   -0.33155426690569
C         -11.47818358507672    0.78601871440725    1.65703547344548
C         -12.70438711474807    1.51392075134296    1.88444258243882
C         -13.30860946216766    1.75199990269114    3.09118130305118
C         -12.76111463709551    1.35022902677264    4.32598252043546
N         -12.34517678270150    1.03593968910410    5.34879305210768
C         -14.56413896985616    2.37230060979959    3.24111270433205
N         -15.59281161143550    2.84565426223052    3.43195978197476
C         -10.51261951638588    0.35406770918458    2.53500557003887
N          -9.44407317461905   -0.27913209723124    2.03291907391503
C          -8.30869706430601   -0.70228582581014    2.62674593861106
S          -8.13246384720085   -0.86229611070418    4.34191319641289
C          -6.51700649005428   -1.45065518237799    4.09556551280878
N          -5.76903381274826   -1.79173226009143    5.22993465746912
O          -4.64031516458873   -2.21122421638074    5.05691389127531
O          -6.31244535488982   -1.64006175891264    6.30985572241346
C          -6.14104523162924   -1.50665811169944    2.77994426152959
C          -7.15717505266946   -1.07449596502198    1.90774440091831
C          -7.07108780246645   -0.92847474361431    0.48281014287812
C          -6.00529321346513   -1.19971918346433   -0.29888307705884
C          -6.00023769399256   -0.93518920845583   -1.70208188595740
C          -6.88930635266970   -0.17597147962630   -2.45357475865079
C          -7.84307590319641    0.71096662804708   -1.92767123004786
N          -8.54073931182637    1.52907562858301   -1.52512182655883
C          -6.57180314036738   -0.18480449023876   -3.83846483634315
C          -5.40012839286605   -0.88511935878397   -4.09881352227440
S          -4.72220548357085   -1.61216204096284   -2.69295135148230
S          -4.85898692739006   -0.80230741328526   -5.74660489286248
C          -6.25307603393107    0.17520209552359   -6.10323810975792
C          -7.09773115244893    0.39494666614680   -5.02608221956787
C          -8.27685529389206    1.09845089793463   -5.39846750022617
C          -9.43335614215029    1.03805373394109   -4.61752803123748
N         -10.39954260992501    0.86171769651088   -4.01941643439114
C          -8.24852562426744    1.51268580551499   -6.73496629158729
S          -6.81100772167703    0.90195361750933   -7.56449960270848
C          -9.14772131685673    2.30700145321110   -7.46507472396964
C         -10.05297588599636    3.21090921261751   -6.95259871409225
C         -11.02261761085844    3.93518507969842   -7.68990124388890
C         -11.79840264670171    4.76794325654472   -6.93487481819877
C         -11.47443491227673    4.75208730623244   -5.56549195183131
S         -10.11988528924777    3.68665722735204   -5.27132079047356
C         -12.11508658543436    5.34158805472883   -4.48680652542642
C         -13.27265301261877    6.14277109566959   -4.46017407137819
C         -13.72482253791659    6.42085325808818   -3.19957189285827
C         -12.93841718387830    5.86286238151868   -2.17048592824250
S         -11.56419023583765    5.01548298399183   -2.86389891117420
C         -13.09411895947749    5.82088517360913   -0.79995639737588
C         -14.13483969000471    6.29583218787214   -0.01156024003705
S         -15.52075321956621    7.15528641860285   -0.61456792938296
C         -16.23035469345749    7.32872322317558    0.95677504290935
C         -15.44321819324451    6.69832808989158    1.92913488767859
C         -14.25312359727328    6.12611246659569    1.39122429690419
C         -13.36590102653445    5.45897018125191    2.23910505148624
C         -13.62723500368165    5.33406567057732    3.58879615395592
C         -12.69580956752653    4.62037177864771    4.45566001129575
C         -11.39860037880083    4.45092473807188    4.22238511967942
C         -14.84342376095018    5.85798080439326    4.11921884690804
C         -15.17850382272276    5.68221189102260    5.56756040398211
C         -15.71858561032801    6.51815565688628    3.29923556152339
C         -17.45416006520654    8.06742011058488    1.04863257225705
C         -17.92607312552850    8.70367102219892    2.12270507947956
H         -16.30354223651912    4.13075937944306   -0.82490619376657
H         -13.24497709260067    2.28281225856529   -4.26291243964928
H         -14.95458529025750    3.11681720833761    0.94703193776370
H         -11.88955964563871    1.19429605687782   -2.50420465980348
H         -10.55077494132620    0.53313334169929    3.60223673353100
H          -9.51632810893234   -0.39184254879042    0.99558096699996
H          -5.16665824491034   -1.84336497455787    2.47766313562689
H          -7.94460358098722   -0.52757900420609   -0.00867448504873
H          -5.10846858150937   -1.64829218314595    0.10345271530916
H          -9.08117438005767    2.24134846056633   -8.54315293683269
H         -11.13423680766969    3.79757407136046   -8.75080345620688
H         -12.59926382533529    5.36990771096575   -7.32482392461021
H         -13.75937773515180    6.46972946735206   -5.36125688338133
H         -14.60496349946642    7.00494638707347   -3.00019909582174
H         -12.30645460296185    5.30701437831639   -0.26446651314170
H         -12.47535607651733    5.01046632307328    1.82655810655091
H         -13.11591907766637    4.20344215900386    5.36015264231076
H         -10.90072750738356    4.86772527029930    3.36249232350732
H         -10.77845844247410    3.89969628433630    4.90826248159221
H         -14.37438822425365    6.05091116692478    6.20231481888792
H         -15.33593144759319    4.62680188197039    5.78914878669622
H         -16.09075864313828    6.21910468531453    5.81436640517192
H         -16.65247677808042    6.87785906999975    3.69914145259115
H         -18.00282242498568    8.13638422434033    0.11659640215276
H         -17.39478800144748    8.74172207433643    3.05636338830246
H         -18.85875354737398    9.23799606851145    2.07862723485388
