105
 SCF done       -215.265716057538          0.000951109803
C           1.92557652916429   -6.00883817471812   -5.52778138113497
C           3.05260000218589   -6.56273043998722   -6.06721178643837
F           3.38073392896782   -6.31451125633854   -7.34355287159173
C           3.88136105165727   -7.39859053618838   -5.29372804689565
F           4.98102330874402   -7.92944426281774   -5.84897188624427
C           3.57177392229757   -7.66925621296707   -3.99022647368383
C           2.41709529308223   -7.11415039185970   -3.40607054403991
C           1.57812243009881   -6.26843432147150   -4.18712159802355
C           0.41298501443182   -5.69956003474937   -3.62163224069267
C           0.09698505237941   -5.97080962574580   -2.31748028541398
C           0.93788377224916   -6.82071694486544   -1.54655647907282
C           2.06972024267083   -7.38087839895105   -2.06234652338349
C           0.36987060607918   -6.96829244060385   -0.18962423481259
O           0.84714310064610   -7.61323935442509    0.72324949500021
C          -0.88518064341817   -6.18904956735494   -0.19850889496208
C          -1.01648695496091   -5.53382394423655   -1.47525645929407
C          -1.97400390318011   -4.61778325593657   -1.84201752671081
C          -2.98672404746115   -4.11188234430489   -1.00178556957579
N          -3.81860318316323   -3.62469107599756   -0.37678669998899
C          -2.04355567995105   -4.01743397835104   -3.11465398949240
N          -2.15953545226092   -3.49921822862493   -4.13344265206575
C          -1.80083287681873   -6.16770808575805    0.83332674373651
C          -1.62786917753837   -6.79659652358212    2.06369757807266
C          -2.59229946945084   -6.79472157943884    3.05164177170739
C          -2.48247606612334   -7.38746251074374    4.33256506050539
C          -3.59189895990811   -7.23983609531419    5.10967766965472
C          -4.63629180149684   -6.53067138614639    4.47393042856018
S          -4.15984362660842   -6.04157048278630    2.86631332156706
C          -5.89327814548458   -6.24037412240379    4.97350455692407
C          -6.41783889205196   -6.55806669830140    6.24949981763161
C          -7.70007651180154   -6.14652320069956    6.42902757186287
C          -8.26757002774306   -5.49548595977464    5.29819266242836
S          -7.08406306595031   -5.40760216576349    4.00914687152732
C          -9.52304954224369   -4.94610900847034    5.26385369222653
C         -10.18078812778703   -4.34092823356195    4.17178943262260
C         -10.04910892912352   -4.54256466488973    2.79761559921669
C          -9.39479186872633   -5.64928844607002    2.23763782198496
N          -8.95415825340353   -6.60850537698745    1.78783616524905
C         -10.88378534911489   -3.67810957102938    2.03982377258297
C         -11.67469600039434   -2.87778143814303    2.85729881470187
S         -11.40731360745274   -3.12992502387227    4.53592399262432
S         -12.77470520609395   -1.82872923548266    2.02179735503700
C         -12.15455288016504   -2.45668654951012    0.53083606408592
C         -11.15110067206917   -3.41588317178140    0.66329415750336
C         -10.66384067644011   -3.82525956065643   -0.59950016181239
C          -9.61516296184752   -4.72682707814287   -0.83302500443447
N          -8.75171641539098   -5.43946555711615   -1.08405804762304
C         -11.32107392552231   -3.19070214510199   -1.66226248416314
S         -12.54894981874155   -2.07200245674679   -1.09826926717630
C         -11.03065266033959   -3.39319132787154   -3.02115295106731
C         -11.66861413564795   -2.84388815810851   -4.10279466656030
C         -11.31972520378907   -3.05818353454769   -5.46265439653487
C         -12.12228087959967   -2.41618687270612   -6.35318579138666
C         -13.15814166572919   -1.66543541876450   -5.74915278095240
S         -13.06185019553780   -1.78333098356623   -4.00866445035095
C         -14.15897711069639   -0.93943749574840   -6.36853985857258
C         -14.36768646895683   -0.74978885995706   -7.75259184048529
C         -15.47351001211649   -0.00718659531938   -8.04197733800491
C         -16.19662463085924    0.42066962538795   -6.90378522308868
S         -15.40417273045949   -0.12723709391242   -5.44701778598248
C         -17.36589015104721    1.15570735500520   -6.90179540686341
C         -18.05150870181697    1.49233720046325   -5.73903752788117
C         -19.22427142640841    2.20264076531177   -5.60667798582839
C         -20.00191923828909    2.05857950622309   -4.35386834993711
O         -19.62592424044175    1.55632211804846   -3.31698930761923
C         -21.33981070834398    2.60840989775082   -4.65776766277421
C         -22.46076137825389    2.61724186997572   -3.88077119494262
C         -23.65561558087998    3.16050688775156   -4.40525904882530
C         -23.66121614804464    3.68330197224566   -5.73033174171949
C         -24.85759952926415    4.21463869918603   -6.25136136529619
C         -25.99408101267315    4.22782931534653   -5.49206877828416
C         -25.98687379096759    3.71147836763924   -4.18167404599039
C         -24.84232537523406    3.18884358178906   -3.64786912444175
F         -27.11680722403556    3.73552233305610   -3.45951639918719
F         -27.13130838008233    4.73355959253044   -5.99046009837187
C         -22.47935916049209    3.66875054472826   -6.50812565088047
C         -21.33308422625186    3.14297479122804   -5.97726612300470
C         -19.98040084509644    3.01035541567724   -6.52415110191205
C         -19.50399026471007    3.70854851977167   -7.60904707209062
C         -18.14456898874992    3.79784307858059   -7.96723465918595
N         -17.05006457107781    3.94427607970091   -8.28357973517594
C         -20.30948116318867    4.51469509796443   -8.43705399312799
N         -20.91995074514884    5.16653427572630   -9.15924141185437
H           1.30209834940733   -5.37016601952666   -6.13382553539073
H           4.21643995755967   -8.31165051541937   -3.41099636826060
H          -0.20191607710994   -5.06623032298307   -4.24021766539495
H           2.69163851023757   -8.02015181233765   -1.45425640214451
H          -2.73324945284703   -5.63664203799828    0.68351589539857
H          -0.69909168984077   -7.31262216307021    2.26105377062620
H          -1.58822051074570   -7.90288174127234    4.63452964580992
H          -3.68817550459030   -7.62508430922446    6.10869220832524
H          -5.83650602239719   -7.07238151639042    6.99302021464643
H          -8.26931974127903   -6.29581592958040    7.32929234973458
H         -10.05803139330647   -4.91428806224793    6.20513355060023
H         -10.20442683248143   -4.06368773778855   -3.22433471198768
H         -10.48452533892048   -3.68076029586323   -5.72961377971255
H         -12.00535072788418   -2.46755391686413   -7.42035983316339
H         -13.70495741677348   -1.16264127211180   -8.49145022323687
H         -15.79457562748301    0.24873958905854   -9.03576838119530
H         -17.76451281412799    1.43187443661804   -7.86659164308267
H         -17.68194094131976    1.06648035127305   -4.80990591115344
H         -22.43890340203604    2.21110467024046   -2.88096444824452
H         -24.88007018249192    4.61672800259077   -7.25219265834347
H         -24.85273029053316    2.79676477207026   -2.64293103147397
H         -22.51666584265323    4.06599639791428   -7.50976348194133
