92
 SCF done       -210.923521863215          0.000740872014
C         -10.24903795954899    2.22659166223533   -2.40958648173261
C         -11.61483262543581    2.26996116360580   -2.41821704620755
F         -12.25065426388244    3.38686213786577   -2.79195599756275
C         -12.37140988080118    1.14340955077874   -2.03477663284183
F         -13.70819540441549    1.21549756969946   -2.05305350920184
C         -11.75094046876327   -0.01087019677079   -1.64688601417870
C         -10.34455260285712   -0.08651290645176   -1.62555906863071
C          -9.57834142975372    1.05082791632621   -2.01548365297086
C          -8.16657532242142    0.99708477566189   -2.00556094199138
C          -7.53872579662328   -0.15921603999594   -1.61949228403649
C          -8.31193542561517   -1.28714570760081   -1.22424326426133
C          -9.67743749590186   -1.26359346547369   -1.22156365429067
C          -7.41794187918857   -2.39015531354850   -0.83025758409919
O          -7.73837678109648   -3.45533161618214   -0.35701348903765
C          -6.03184010746613   -1.86113169776213   -1.01595452443326
C          -6.12455076744498   -0.49986901150834   -1.52214949826542
C          -5.07808889712769    0.29060718542747   -1.90973786606409
C          -3.71933062541500   -0.09248150754443   -1.87100487290377
N          -2.59924224338032   -0.34154975750826   -1.88092948178734
C          -5.22312220456837    1.59695854732830   -2.42578236170959
N          -5.27995599599500    2.66336218653486   -2.84518213476891
C          -4.92000938386310   -2.50647875454855   -0.59514991950172
C          -4.88241641664308   -3.90113025084856   -0.21686504759904
C          -5.49455662987538   -4.91506607813518   -0.96964119295936
F          -6.08947270452233   -4.60696506052400   -2.12577552794032
C          -5.41641988821773   -6.23631938772469   -0.58398596713607
F          -5.98989627846229   -7.17385327092245   -1.35301314748091
C          -4.71769836946271   -6.65523555131413    0.56777521949059
C          -4.12833629353635   -5.62809494248781    1.32575204022115
C          -4.18726400982416   -4.30666863387650    0.92779876122519
F          -3.61368444135186   -3.36855692688528    1.69318039527318
F          -3.55404851186662   -5.90622682503031    2.50485526629271
C          -4.68534611183669   -8.05096220273207    0.88497542270123
C          -3.72154051286117   -8.76521679740421    1.53790355937991
C          -3.80880475215138  -10.16620341559221    1.80687361843188
C          -2.70519479804510  -10.69520122954455    2.38952851453966
C          -1.66728473035912   -9.75129610266757    2.60429553726816
S          -2.15743231338473   -8.16873080544434    2.05327672615839
C          -0.42832564701204   -9.95556330655969    3.17109872177644
C           0.11895466986676  -11.16122379025223    3.68315375774536
C           1.36362809047608  -11.01713619894355    4.19971915106361
C           1.88890278916507   -9.69057266267255    4.11421064987286
S           0.71153242162246   -8.64484476149332    3.34544093060823
C           3.07855643748320   -9.29927687732543    4.65703717616760
C           3.69684416727388   -8.00762417204612    4.62669816873454
C           4.50542400101306   -7.61027688464997    5.71102278215422
F           4.65026035626795   -8.45640345480858    6.74050057862629
C           5.10635914587164   -6.37187085829818    5.77002993259424
F           5.82831588732592   -6.04067115571950    6.84603873897061
C           5.00923702082637   -5.44917321196330    4.71470759993758
C           4.23241036237018   -5.85338212465745    3.62081395798374
C           3.59961168395521   -7.08039984454155    3.57648140866459
F           2.94162754695229   -7.40053293089547    2.45403773460536
F           4.06112954286163   -5.01642092262193    2.58604063783459
C           5.63113681151828   -4.15548567031477    4.82814724017200
C           6.12325212060750   -3.34221844227249    3.86643948031127
C           6.34760794440046   -1.89596791220037    4.19293769019681
O           6.36861095975887   -1.40502047505185    5.29432161246298
C           6.46940092270282   -1.22320136563425    2.88655225329095
C           6.53427793853037    0.11341528583178    2.61278735811686
C           6.60651525776378    0.53551635515016    1.26665630792892
C           6.60387177433490   -0.43897125690732    0.22572471295060
C           6.66365332069233   -0.00971349431128   -1.11552970169255
C           6.72717185864291    1.32325140817714   -1.40987767915274
C           6.73210808587359    2.28608089529595   -0.37975838319070
C           6.67311583565941    1.90197054017177    0.93052296494080
F           6.79509830090208    3.58508200147896   -0.69783610054666
F           6.78662970112005    1.72941999337620   -2.68364228452272
C           6.54396961009178   -1.81555316548517    0.53923393169624
C           6.48505852187430   -2.20200425792132    1.85180565452337
C           6.42821356236259   -3.52710053653606    2.45882743822448
C           6.81324741596708   -4.69193726148539    1.85456913720996
C           6.91374792661095   -5.92673074572067    2.52580367528382
N           7.01353153853646   -6.94644928182276    3.04270429942516
C           7.21795684935216   -4.77853957162835    0.50491765559394
N           7.55742703199363   -4.90053399409480   -0.58375377957450
H          -9.68542296643951    3.09692775840288   -2.70746092854943
H         -12.34374416635808   -0.86390083877950   -1.35606930906807
H          -7.61540923757024    1.87553215508337   -2.29982902106899
H         -10.23899162986068   -2.13373388640613   -0.91745266165515
H          -3.98633488153126   -1.97060831874139   -0.48066091042548
H          -5.51129454615245   -8.62533311751353    0.48477613821879
H          -4.69562540855471  -10.72224834018387    1.56014879773484
H          -2.60113696238404  -11.72813028984171    2.66861471760074
H          -0.42511570771563  -12.08805703859951    3.65776359339604
H           1.93876271234613  -11.81189784558463    4.64016968192789
H           3.59752150831166  -10.03768356417561    5.25488809934039
H           5.66711229527250   -3.75038112943507    5.83576662898887
H           6.52636291900992    0.83883954698874    3.41196804628617
H           6.66291300462747   -0.73356000154115   -1.91537210574185
H           6.67640072061450    2.65133377221818    1.70644889523115
H           6.52971490458571   -2.53222399190682   -0.26624897040030
