102
 SCF done       -186.357157248576          0.000716181600
C          -8.05215032799949    4.04711556420599   -3.12846411036536
C          -9.03010619508298    4.82761419499242   -3.67966588845223
F          -8.93081732325620    6.16553254360139   -3.62592414592977
C         -10.14262778365439    4.24618608848353   -4.31642513831988
F         -11.08104405349550    5.04270590748381   -4.85276514867295
C         -10.26293092764210    2.88719702381099   -4.39893351990176
C          -9.26052406238041    2.05984440279025   -3.86096336461028
C          -8.13674285234502    2.64426178955207   -3.21098824510068
C          -7.10169434252226    1.82634797535037   -2.69729021771471
C          -7.18024396471336    0.46800890667849   -2.85464850827898
C          -8.30756178643169   -0.10390226673363   -3.51234899727081
C          -9.33295464143139    0.65551213389103   -3.99707970223449
C          -8.09749994937767   -1.54590118780490   -3.64203974453030
O          -8.85596323515843   -2.36657271876720   -4.15001038789691
C          -6.77183395813167   -1.82161599874389   -3.07534920424448
C          -6.23881426525856   -0.59782395094871   -2.52385437138797
C          -5.05446753697955   -0.44396451539286   -1.84891682699806
C          -4.55793636934566    0.78821071901624   -1.38326557328021
N          -4.08326515959193    1.75973711224962   -0.99543826765100
C          -4.18554602616896   -1.50888452579652   -1.53931262192505
N          -3.44993915257578   -2.34690277904496   -1.26489596748518
C          -6.15594170705966   -3.03584686466410   -3.26058072244545
N          -6.77268387331356   -3.98014121695046   -3.98290471279700
C          -6.23371765922761   -5.09595819501021   -4.54833343772932
S          -4.94397404361685   -6.00515928268987   -3.83775353486293
C          -4.93298245269144   -7.03093411450483   -5.23679768642917
N          -4.01524958911397   -8.08694188940800   -5.26589060471369
O          -4.01017286109846   -8.80524260717847   -6.24833516006615
O          -3.28822437606448   -8.21021200905186   -4.29549531395826
C          -5.85338963815829   -6.67363140515757   -6.19243313768887
C          -6.62148469760663   -5.56986684227895   -5.80446569537092
C          -7.59116689500058   -4.82298443842711   -6.59879127010988
C          -8.84474085454787   -4.56304886069518   -6.19612653215652
C          -9.67827827675013   -3.54381034854595   -6.75532210683249
S          -8.94431135271653   -2.06635023761181   -7.33051630258450
C         -10.49739274842777   -1.29357279616580   -7.51941736633084
C         -11.51222220825044   -2.18981232577234   -7.21999435626974
C         -11.04997304764722   -3.42955650721342   -6.75462361357225
C         -12.06679294509955   -4.42382276800281   -6.30814551520533
C         -13.05109365178701   -3.76286857807380   -5.32643522819512
C         -13.41500256684974   -2.31247244420044   -5.71129870348165
C         -12.81351547063758   -1.32820104564428   -4.73823780344448
O         -12.33185884481554   -0.26706916293542   -5.02086871597873
C         -12.98130673578734   -1.94053476975330   -7.13954210081099
C         -10.63960157609104    0.07143791244669   -7.84492724848506
C          -9.71756262777506    1.06312688470799   -7.65178837496700
C          -9.93711814111711    2.44955769943217   -7.86786082052139
C          -8.93415905907366    3.25330882269408   -7.42437834439290
C          -7.85559144037326    2.55309238167836   -6.83882934746011
S          -8.12962990645364    0.82319519095722   -6.93627523576783
C          -6.75107151166765    3.07636951352255   -6.19915442303265
C          -6.42995193981038    4.43829136042335   -5.99380961818024
C          -5.30817481812474    4.64468094370301   -5.25197881795453
C          -4.66260072511352    3.46051156129921   -4.81769742287159
S          -5.55701111765626    2.05981149908433   -5.42955986624872
C          -3.57257155781013    3.25041216348474   -4.01762751243255
C          -2.66669423954484    4.18365431421086   -3.46058058227765
C          -1.73726649938451    3.84303371381853   -2.47138691111680
C          -0.96087076487897    4.98418756778993   -2.15731278970491
C           0.07565876999745    5.17501888334513   -1.26945595156419
C           0.66431631165871    6.44769607834345   -1.21891508115535
C           1.71438073957177    6.94812332889962   -0.45880113457408
C           1.92776558978316    8.31805927100037   -0.80263547649049
C           1.00470967486391    8.66358241321419   -1.77530424716184
C           0.19481362163370    7.52478366448955   -2.07048280318782
C          -0.83761061838322    7.34007589376530   -2.95280296248711
C          -1.43051788470102    6.06219826053476   -3.00707112263033
C          -2.46258189985682    5.56541739402699   -3.78481078812341
C           2.92456374399344    9.20493826161943   -0.25257535260267
C           3.82799130016730    8.87899999854698    0.66794506161825
H          -7.20635581222963    4.51142888419098   -2.64551466341192
H         -11.11635573291970    2.44297782881573   -4.88714244740824
H          -6.26128372624157    2.30025172316931   -2.21560392982095
H         -10.17886735898350    0.20557819427411   -4.49379610254580
H          -5.15895921982139   -3.25313884887905   -2.89876240421867
H          -7.69736734360179   -3.68103591956180   -4.34688884704768
H          -5.95991408539569   -7.20033955826132   -7.12323253860383
H          -7.21226088176447   -4.37039138028517   -7.50594113782680
H          -9.26501708763434   -5.10978500989122   -5.35968100072381
H         -11.60058973087894   -5.28946364259464   -5.83854672581187
H         -12.61633188860462   -4.77749523414270   -7.18580823978131
H         -12.59659040858958   -3.76096591425434   -4.33329483867856
H         -13.95275591271815   -4.37427537338128   -5.27267388244467
H         -14.49999402298526   -2.17859874849728   -5.61551108361502
H         -12.86541296915763   -1.66194253624912   -3.68254565376786
H         -13.22603628906410   -0.89745556130896   -7.33333791013592
H         -13.51222497673241   -2.56685316981261   -7.86089731156361
H         -11.61560931566117    0.38415812777330   -8.19144738205336
H         -10.84617042374007    2.80508919478006   -8.31974386026506
H          -8.95041461868286    4.32688380964049   -7.48252718884979
H          -7.04421592312749    5.22836298159279   -6.38752713961962
H          -4.95696963999541    5.62042465818462   -4.97380543824841
H          -3.37077207552614    2.21971197779124   -3.75345350225787
H          -1.65039525448967    2.87796328951091   -2.00837441875031
H           0.43199826313122    4.37454924010304   -0.63703157823641
H           2.27665178092747    6.39486002335119    0.27081996106891
H           0.90809393221748    9.62742433073975   -2.24139761735526
H          -1.19314451597454    8.13848463429409   -3.58945110335296
H          -2.98417522511800    6.11785624740448   -4.54366042081185
H           2.90510060909069   10.21259751674684   -0.64896740422931
H           3.88616469417597    7.89155962069092    1.09229264971343
H           4.54335214614223    9.59530592788487    1.03289990730024
