98
 SCF done       -214.109525364666          0.000601109300
C          -7.90677278304160  -14.53211367823033   -7.74795117672733
C          -8.81805850646068  -14.46514514715308   -8.76493697491227
F          -9.04120630441948  -15.53263778103486   -9.53966606150062
C          -9.53352995722775  -13.27536554576985   -9.00965005708266
F         -10.42046866073685  -13.23846166664909  -10.01126964506455
C          -9.32875564629666  -12.16924778841016   -8.23281247688439
C          -8.40001148210759  -12.20859386904912   -7.17486251949923
C          -7.67447456656794  -13.41020355160191   -6.92803626116132
C          -6.73775434002397  -13.47392146569314   -5.87037614589533
C          -6.53892734094120  -12.37416385711900   -5.07970810720135
C          -7.27446426672414  -11.17813380950472   -5.32908883765319
C          -8.17878158243852  -11.08461467550742   -6.34859438066849
C          -6.89482789614993  -10.17197262692471   -4.33211058502884
O          -7.31959368217391   -9.02593524221667   -4.21851877463757
C          -5.89986252052044  -10.81166685468508   -3.46309314762073
C          -5.66174438316169  -12.15938212799147   -3.92991737255199
C          -4.78157413688239  -13.07027850183803   -3.40966820251590
C          -3.94567268060402  -12.81397039152829   -2.30299267385478
N          -3.25141142156608  -12.63837658386998   -1.40596179343873
C          -4.59614502000482  -14.37332355747889   -3.91709017885503
N          -4.40518317953447  -15.44294926635537   -4.28594091299399
C          -5.36674707798627  -10.15483348412228   -2.38319960505574
N          -5.73945163578417   -8.89758498617227   -2.11026949237736
C          -5.34127521545478   -8.14394789887426   -1.05646337742183
S          -4.22804812922607   -8.75261142303694    0.12636741658448
C          -4.36790843778232   -7.25671917318565    0.99158497389383
N          -3.60564007161909   -7.11697257065102    2.16598836642077
O          -3.69169239417674   -6.07002666924028    2.77255896184845
O          -2.91509809721276   -8.06910876918479    2.47667312743672
C          -5.21683853246952   -6.35727691640114    0.41228913745543
C          -5.79182604605903   -6.84471607573237   -0.78188711063754
C          -6.69079048127294   -6.10982922591957   -1.62628016076699
C          -7.29370079655490   -4.95921684046720   -1.25935108509570
C          -8.13314927157241   -4.17814819843735   -2.09385302360790
S          -8.44544928555914   -4.49096874828986   -3.79066400804147
C          -9.45005664805749   -3.06614936087793   -3.98207039162121
C          -9.53853033833823   -2.41014377267292   -2.76630776371967
C          -8.80480224043569   -3.03237460160072   -1.73177903426960
C          -8.98046650346055   -2.24371424701796   -0.51438643113297
O          -8.54308121701680   -2.39569316571315    0.58614526583563
O          -9.81182330125738   -1.19192530496551   -0.85433519448435
C         -10.17974078860351   -1.23406266616916   -2.18110262120129
O         -10.90391057581417   -0.41127901299138   -2.66627379823884
C          -9.97686441199700   -2.75642032908762   -5.26269886042944
C         -10.68679695758600   -1.62535967751519   -5.49515321027829
N         -11.22188557826337   -1.20352925340909   -6.67085956024783
C         -11.03070989662025   -1.65529944434020   -7.92982563121466
S          -9.78610078855811   -2.77692410768865   -8.38350228701988
C         -10.15293535887248   -2.50794327275640  -10.06046024806146
N          -9.41506712826504   -3.23177911198232  -11.00318862822032
O          -9.66067836241955   -3.04882955082680  -12.17986837964867
O          -8.57585953250610   -3.99905917756599  -10.56150415248083
C         -11.16857633375691   -1.61404829917947  -10.25659950266791
C         -11.71306151853287   -1.13827369715482   -9.04948650194311
C         -12.85617815653808   -0.26966318581287   -9.00243632699465
C         -13.81713914006919   -0.29473203760415   -8.05047404625651
C         -14.98522903635674    0.51826690184044   -8.05163344823112
C         -15.17476782385751    1.78850697201375   -8.50249021046855
C         -16.57181057421196    2.25441487414772   -8.75800141485819
O         -17.58712973583188    1.68625189954185   -8.43552876831959
C         -16.43153946621260    3.51177389590277   -9.51726170306747
C         -17.40287771030016    4.28642040917647  -10.08245146782481
C         -17.02853114289063    5.45852286713668  -10.77755197199994
C         -15.64825038770559    5.80031406185229  -10.88056860375028
C         -15.28129775499040    6.96953949507271  -11.57677516664086
C         -16.23967864786754    7.76457387849534  -12.14047389731156
C         -17.60467359640423    7.42606256943547  -12.03711639368820
C         -17.99208003539091    6.29714423090028  -11.37038446880466
F         -18.52077555832289    8.22213351946149  -12.59997375054023
F         -15.89027202095643    8.87570605417079  -12.79803623507577
C         -14.66467650485768    4.97968624339208  -10.28302847308887
C         -15.05172635548864    3.85517573094712   -9.60298084533984
C         -14.27805022434653    2.86470910113680   -8.86052560192261
C         -13.00172553181731    3.05975109409907   -8.38774416606321
C         -12.39696144055418    2.17897199593480   -7.48515541572664
N         -11.90505707170984    1.45917637387831   -6.73482807176898
C         -12.19986000251461    4.17631461186902   -8.70311915186959
N         -11.50219126450418    5.05390706158000   -8.94587345152449
H          -7.36713712431665  -15.45008979359188   -7.57483786807258
H          -9.88374069306431  -11.26643783868022   -8.43408104480920
H          -6.20405206630799  -14.39664145614883   -5.71029762519037
H          -8.72057749718783  -10.16700546038645   -6.52010639041990
H          -4.64928353298942  -10.61630080804353   -1.71698544196929
H          -6.43179445032696   -8.51583981417226   -2.78137069849535
H          -5.39411641481606   -5.38433628750449    0.83243499809392
H          -6.88406266478445   -6.50223647104391   -2.61682690033573
H          -7.16774702931439   -4.55358672555318   -0.26496788332313
H          -9.76755930958608   -3.47492075230478   -6.04022091518763
H         -10.89738572046607   -0.95346633966981   -4.67369757457569
H         -11.67131665882344   -0.27315640771036   -6.62209242670344
H         -11.52486028796866   -1.34357503335806  -11.23417137848850
H         -12.98808947790213    0.37202983459127   -9.86490289359031
H         -13.78262940795386   -1.06073677922333   -7.28643758659917
H         -15.88976040779174    0.03905905254305   -7.68630221646161
H         -18.44311235211843    4.01179261337940   -9.99681437913981
H         -14.24183707608533    7.24553216341979  -11.66187650158236
H         -19.04038920329827    6.05260426602886  -11.30015449414490
H         -13.62772613038273    5.25767044060945  -10.38448863192197
