123
 SCF done       -244.570637674118          0.000708575940
C          -3.72594055239199  -34.32110826469646  -10.42349215236880
C          -3.56347375765121  -35.66099116719855  -10.20686303341040
F          -3.37737867340066  -36.49159510361876  -11.23893081826856
C          -3.58931632479803  -36.18492210585524   -8.89804331190237
F          -3.42744822417085  -37.50095870912566   -8.71584070018080
C          -3.77659424825128  -35.36083818795694   -7.82367669269104
C          -3.94573143368652  -33.97566924656724   -8.01459005907896
C          -3.92152113030376  -33.44463823873517   -9.33733132150524
C          -4.09201102889092  -32.05796827929819   -9.55426450716465
C          -4.27810819034581  -31.22606742493387   -8.48155289594814
C          -4.29118364087430  -31.76552802918572   -7.16386688180668
C          -4.13468639536074  -33.10062885323277   -6.92255036897932
C          -4.48229880746883  -30.67400360819247   -6.19872375936943
O          -4.56358970113510  -30.78044650150763   -4.98753278986518
C          -4.53884964219404  -29.43373048678227   -6.98534373661183
C          -4.48466500251866  -29.78245482077697   -8.39656468932108
C          -4.65475142134195  -28.94053157083226   -9.46164549863985
C          -4.94631425682779  -27.56018333445929   -9.38398282637671
N          -5.20816789955759  -26.44311652139497   -9.40906602262152
C          -4.60168668298855  -29.35963539965680  -10.80929235583898
N          -4.56581497287985  -29.64001992813303  -11.92140605972835
C          -4.55321069476455  -28.16870472164056   -6.46751606806020
C          -4.60248200719812  -27.74576419921101   -5.12407707283423
C          -4.54648646714019  -26.38329509173029   -4.78628125409482
C          -4.39614660099321  -25.37324182612079   -5.75085108306536
N          -4.26147562042494  -24.55853408790326   -6.54642694032514
C          -4.64288061547268  -26.15832355472116   -3.40133345010298
C          -4.78154580768595  -27.36654423935976   -2.70815820469101
S          -4.76703279199781  -28.76667303051326   -3.70713869423017
S          -4.92007509060596  -27.19333234623588   -0.99284113777766
C          -4.79450840468548  -25.46964926557638   -1.19884847305037
C          -4.64886540545916  -25.04742578536373   -2.51041860644684
C          -4.54871469695021  -23.63203858658249   -2.59538788309674
C          -4.36743901729745  -22.84758591960173   -3.74308305797229
N          -4.20788983879701  -22.11883354459396   -4.61570571342505
C          -4.63156364581625  -23.03627296959661   -1.34267282597479
S          -4.82346359975300  -24.18040363729730   -0.04317901170367
N          -4.57232284231103  -21.68702288407187   -1.17905791853566
C          -4.62953926853008  -20.91115679910045   -0.06643976336859
S          -4.74780232301742  -21.55361283663044    1.53199789457632
C          -4.73074493281331  -19.93274698876573    2.16121913943844
N          -4.80888467154192  -19.79360479597919    3.54838242370846
O          -4.79617852996612  -18.66813374503227    4.01062749739375
O          -4.88233232618493  -20.82694887462737    4.19426465853701
C          -4.64072328892212  -18.96805067670958    1.19320167021111
C          -4.58299571646873  -19.50620232802952   -0.10409578218141
C          -4.49155094444500  -18.78325588374489   -1.33889071602336
C          -4.38178225317393  -17.45513214816060   -1.53344694898432
C          -4.27876763642714  -16.91833767950830   -2.85434255085061
C          -4.13578832439967  -15.61324771446347   -3.23592253308532
C          -4.03287162726748  -15.43651824384009   -4.63874826253118
C          -4.11398424618614  -16.67071998716869   -5.33350619559402
S          -4.30028384355266  -18.00497890426794   -4.23424996392331
C          -4.10096185068686  -16.78879091902649   -6.71315855383605
C          -4.24451494912413  -18.09583480094523   -7.35989672077844
C          -5.18863254353536  -18.29713702101795   -8.36446939184894
C          -5.37909099890016  -19.55524215818694   -8.90208922342137
C          -4.63867229778584  -20.64588236277755   -8.46024960811946
C          -3.68104435514209  -20.43675199508969   -7.47314544092682
C          -3.48545970807271  -19.18456793522332   -6.93025480630531
C          -4.84424742311357  -22.01258309359995   -9.02913899424531
C          -3.97818939228471  -15.58305822775466   -7.43407443746908
C          -3.90071314983490  -14.34127661007602   -6.74183451163555
C          -3.91569383571054  -14.23453372899226   -5.35958105197791
C          -3.79797885122096  -12.93615349944830   -4.68323151553501
C          -4.63608130949389  -11.87776966677487   -5.02438249601851
C          -4.51322477984560  -10.65693053016367   -4.39243164994281
C          -3.54918261452982  -10.45208198624139   -3.41120849600426
C          -2.71043833989438  -11.50800761445972   -3.07841788636213
C          -2.83210200885598  -12.73544330976737   -3.70132407883917
C          -3.41500425343622   -9.11582444490917   -2.74925151667905
S          -3.72872764532382  -13.01634686473705   -7.85334180278259
C          -3.72547660911981  -14.12211486797160   -9.23149399308287
C          -3.86745539021627  -15.42949362087955   -8.82824859769414
C          -3.60537996276008  -13.52042350793408  -10.50271531861186
C          -3.47881562772540  -14.05473806866588  -11.75559429473248
C          -3.37151787082532  -13.24342415835156  -12.96035023706858
C          -3.64285616722963  -11.90555259073769  -13.08618573770554
C          -3.53381848890806  -11.19041858482276  -14.29789673896964
N          -3.46426190244423  -10.54823349238811  -15.24704006515126
C          -4.10874001853109  -11.04616763712450  -12.06779638939500
N          -4.50933753179836  -10.27426914941811  -11.31734250802527
C          -2.98906013150371  -14.12200560294309  -14.05926619073067
C          -2.96513587115712  -15.45353596119121  -13.58258138817063
C          -3.31063626376331  -15.47370321080759  -12.14737237131491
O          -3.41698598713744  -16.47392884601624  -11.46900687753001
C          -2.65113021752797  -16.52500174478657  -14.38272491517915
C          -2.33558409915204  -16.26796319022707  -15.72055412885879
C          -2.35282469912849  -14.93208449761696  -16.18777716970943
C          -2.67692377034145  -13.85019880519075  -15.37883187430232
S          -1.92254285751718  -14.83777306060522  -17.86884776332315
C          -1.72978657478089  -16.57008011713627  -17.92027370249891
C          -1.97419015737317  -17.18946171041946  -16.74129401723274
Br         -1.22266913738634  -17.39665059607313  -19.52554426677605
H          -3.70475998725006  -33.93738333312420  -11.43155773868909
H          -3.79353683275549  -35.77716246145192   -6.82862754994281
H          -4.06581777734695  -31.68933625135523  -10.56671364818270
H          -4.15260258578346  -33.48201552154039   -5.91294914266172
H          -4.50574467636652  -27.34315352652354   -7.16983702029650
H          -4.47120829061190  -21.17911410869766   -2.05578772279397
H          -4.62231241979033  -17.91947872882609    1.42557476478808
H          -4.51022955461356  -19.38519836595941   -2.23960055698173
H          -4.35468562298189  -16.75246949688558   -0.71390293716331
H          -4.11900285724324  -14.79556584845508   -2.53751358211005
H          -5.80216979763674  -17.47123818179749   -8.69453494762622
H          -6.12662403432555  -19.69391978562772   -9.67033318902362
H          -3.09820005515863  -21.27188623440001   -7.11656367537517
H          -2.72169589876842  -19.04108751006489   -6.17990251590309
H          -4.07308079835403  -22.22665696506589   -9.76966573176855
H          -5.81237346087533  -22.09411911922054   -9.51691033591713
H          -4.77070030669153  -22.76652631856451   -8.24920335948443
H          -5.40012116723774  -12.02100413075308   -5.77405385288007
H          -5.17514948455462   -9.84736322631978   -4.66365222666636
H          -1.94920109657729  -11.36777804859557   -2.32398761143832
H          -2.15730386773918  -13.53994207560769   -3.44535801904395
H          -4.39064617842511   -8.73298394128214   -2.45553554180847
H          -2.97238205858232   -8.39979295990590   -3.44188136489267
H          -2.78053770774836   -9.17714456623636   -1.86860142527967
H          -3.87118829098727  -16.25448253187836   -9.51637395301868
H          -3.59236738767402  -12.43770865791334  -10.44887600002339
H          -2.64688097268160  -17.52848629259899  -13.98693033328154
H          -2.67176946840902  -12.85213358496833  -15.78324763955612
H          -1.90261266018804  -18.25169936124768  -16.59474509439315
