116
 SCF done       -221.475778427357          0.000366221535
C         -13.77579107548107   -0.17304682777314    6.86936472970904
C         -14.34779930950643    1.05467729800200    6.68136753138175
F         -15.11929093789374    1.59066198551724    7.63421899121368
C         -14.13352782728354    1.76981028821359    5.48620360322218
F         -14.70521951024378    2.97010626002657    5.32707390914037
C         -13.34965478145244    1.24734602918218    4.49541927995466
C         -12.74656648326639   -0.01429922020335    4.65999368174066
C         -12.96283755704312   -0.73868259272156    5.86769835504717
C         -12.36738975069089   -2.00837479947001    6.05534610206760
C         -11.58019285880936   -2.53568420020058    5.06781351255405
C         -11.36784562960067   -1.80329664112651    3.86327167180835
C         -11.93051654587107   -0.57692895424852    3.65358009326623
C         -10.49132046545785   -2.58440707760250    2.98440095532138
O         -10.08736304253938   -2.27389593885249    1.86388670297669
C         -10.18068017974235   -3.81934445248386    3.70461714329032
C         -10.84858869742858   -3.79976372986727    4.98479748259499
C         -10.81562272219921   -4.77108583213462    5.95086420584256
C         -11.49412542537023   -4.68513703713445    7.18379317469302
N         -12.02448762124196   -4.66818015104981    8.20150810252659
C         -10.09793760462675   -5.97856007754603    5.82974587616242
N          -9.52659655478968   -6.97213282284113    5.76636830496149
C          -9.36093435706096   -4.78185188558433    3.15909132191325
N          -8.83660525339924   -4.59076871194074    1.94542088486704
C          -8.00213522160435   -5.40778011193178    1.25814200146962
S          -7.46764942556017   -6.92687337463834    1.90530593798418
C          -6.53298400146052   -7.17675690470922    0.46723530705278
N          -5.78756485586135   -8.36314599412389    0.36844179586938
O          -5.13224436427860   -8.53227669530660   -0.64095321616807
O          -5.85858038258820   -9.13252756790403    1.30835553063690
C          -6.62822364617230   -6.16084935826901   -0.44268161652822
C          -7.47691545548901   -5.11937263028307   -0.01203516419870
C          -7.78870041017208   -3.92029868789034   -0.73475406142301
C          -7.24357938829691   -3.58715642908109   -1.92749426036463
C          -7.50164956579224   -2.42311128231566   -2.69982939078089
S          -6.83962021013252   -2.39849305588482   -4.30803996024973
C          -7.50779745122263   -0.82129060718089   -4.63247009169686
C          -8.22581028586423   -0.36111066463488   -3.52534191309781
C          -8.20122767600356   -1.24581241176327   -2.43827420015006
C          -8.83619791319071   -0.90843364280942   -1.12551869883280
C          -9.19571485334859    0.57196018571859   -1.04118110518692
C          -9.94494360939677    1.00160026952096   -2.30860074711882
N         -10.51444566464576    2.33520336153834   -2.26406481479088
C          -8.98107966492328    0.92750890173061   -3.49528811747390
C          -7.22332625009288   -0.25860299658670   -5.89275201850588
C          -7.48210835248281    1.00947455069080   -6.33769093390601
C          -7.11330995287434    1.44360070518623   -7.61618164849077
C          -7.32646200468650    2.71628770332379   -8.09370567957076
C          -6.95605217398494    3.22230955065076   -9.36056982023058
C          -7.28419503026965    4.53069890678411   -9.55744691869770
C          -7.93632447186397    5.12738004080193   -8.45590954146670
S          -8.12206308651045    3.97584436210052   -7.16102978426477
C          -8.39024879188684    6.43332031667783   -8.35471066349540
C          -8.24348881207683    7.46868536324771   -9.30039206561064
C          -8.80969721423220    8.64965524858470   -8.91885269482822
C          -9.44818863672072    8.60175653204214   -7.66023801865092
S          -9.24484128002719    7.02117036916900   -6.94917560496225
C         -10.08033053968587    9.61467678990373   -6.95810403825928
C         -10.48575827657174   10.84847096229649   -7.45846183675475
C         -10.82191252756919   11.16853850069148   -8.76611337683483
C         -11.04954853382936   12.50000219193055   -9.26181166817070
C         -10.67013246612728   13.67447143509389   -8.65584700674995
C         -10.92001039875519   14.95646969723637   -9.18348978598939
N         -11.10441553549014   16.02944113595528   -9.54934179791502
C          -9.95520313436414   13.75443988264374   -7.44371055438943
N          -9.34607225352242   13.89765636828669   -6.48005007701718
C         -11.67652976232416   12.39047865839162  -10.58058796284277
C         -11.82249719109618   11.02705332289404  -10.89012013367464
C         -11.28568016346436   10.20430381381752   -9.77908347127412
O         -11.30426896166161    8.98947445613117   -9.72049904739490
C         -12.38866384497135   10.60620208529349  -12.07288821160707
C         -12.81224117858350   11.57661113382275  -12.98156832415398
C         -12.65734009642758   12.93441666431833  -12.68614873708703
C         -12.09103716811052   13.35295808185958  -11.48606881201932
C         -13.03541119191488   13.96003824193442  -13.71983791752480
O         -12.31379372452309   14.27599991646259  -14.62705421583426
O         -14.21382991844413   14.50851655908267  -13.44593540096922
C         -14.69071684439926   15.45188025073395  -14.39763720420475
C         -13.46726994713134   11.21488221784420  -14.26330623133418
O         -14.10444075707870   11.98975233428137  -14.93419909433460
O         -13.28667515735736    9.93192208665372  -14.58784318098088
C         -13.88807511265759    9.51236933627129  -15.80447583795574
H         -13.95027525121363   -0.70718152296255    7.79026069993288
H         -13.19649343220726    1.80835519527280    3.58682805941905
H         -12.55088720441205   -2.53090341307514    6.98001670939214
H         -11.75618395101426   -0.04176265248606    2.73254410139057
H          -9.11339543841439   -5.70017839500642    3.67500504541031
H          -9.11846021218453   -3.68881475486200    1.51671000539868
H          -6.10379881613889   -6.18805755274018   -1.37973064469068
H          -8.51776678374323   -3.26717364849281   -0.28652794878056
H          -6.54220763944954   -4.27033519097677   -2.38729983065613
H          -8.15431507676203   -1.16213171778522   -0.31066666188428
H          -9.74557495767354   -1.50337530623286   -0.99571256083737
H          -8.28801751864140    1.17273700619123   -0.93902179178887
H          -9.81451236726136    0.73998643578546   -0.15706586919388
H         -10.77628870845702    0.30643470087586   -2.47857065537557
H          -9.79512267851537    3.02449139765766   -2.07070918835488
H         -11.21550345830688    2.40387264793238   -1.53550787258526
H          -8.27731118707065    1.76387084335882   -3.42336003673192
H          -9.54955600244496    1.05256424427281   -4.41821032527663
H          -6.70092970579343   -0.92153083758889   -6.57312062214373
H          -7.96395172641392    1.73417898934998   -5.70128258767545
H          -6.62116658591707    0.74329748945125   -8.27877685977385
H          -6.45591157963604    2.60525642438518  -10.08599822258171
H          -7.08020603717118    5.07599646601350  -10.46075189415061
H          -7.72012940447272    7.32582945671156  -10.22850880054850
H          -8.74967895170703    9.55848508195978   -9.48868660560932
H         -10.23603357305824    9.44327798085785   -5.90059176151058
H         -10.62546503511833   11.62654900529948   -6.71693098341460
H         -12.50231399164489    9.55584998342165  -12.28953164906869
H         -11.98676451877190   14.40698973556803  -11.28552265341117
H         -15.62206042150587   15.84327819200761  -13.99714609811951
H         -14.86006371457441   14.95159964389802  -15.35271413194785
H         -13.96104249497781   16.25201238653479  -14.53696056780804
H         -13.67488607129051    8.45062669278928  -15.89801914261241
H         -13.46467537592367   10.06564740299918  -16.64532322309803
H         -14.96537114807392    9.68892660540657  -15.77544494504735
