95
 SCF done       -178.198469464023          0.000468613829
C         -11.40360387153358  -11.73632759818009   -4.59536986482317
C         -12.05922976284791  -12.87375212507261   -4.21272611949625
F         -12.83431652920950  -13.52872688104843   -5.08627170090220
C         -11.92877604443541  -13.36955304144359   -2.90075426608637
F         -12.58199609202371  -14.48575891506119   -2.55256763889235
C         -11.14337568816822  -12.72055102011180   -1.98805027102640
C         -10.45583757821060  -11.54802092004394   -2.35230743337310
C         -10.58717230336528  -11.04484362501934   -3.67894041352168
C          -9.90563157661103   -9.86806497137527   -4.06783256571659
C          -9.11547775970341   -9.21520557805022   -3.15892156502684
C          -8.98763195333896   -9.72879303360882   -1.83489585072873
C          -9.63437189572527  -10.85962075763312   -1.42992017430435
C          -8.07979998523253   -8.85683608651478   -1.07802643530759
O          -7.72430563484298   -8.97824190812544    0.08826812424903
C          -7.65168429718961   -7.80669570900067   -2.00897776567884
C          -8.30855007605559   -8.00419176121088   -3.27280462390644
C          -8.24355363871689   -7.19606239844825   -4.38733214963492
C          -8.93771912106158   -7.44410765416342   -5.58888363514683
N          -9.47554231795115   -7.57131773534027   -6.59581703435019
C          -7.53173937584418   -5.99618990632614   -4.49691670022968
N          -7.01141859463215   -4.98735768648835   -4.69453617334092
C          -6.71820489565715   -6.85991157768059   -1.64885573505374
N          -6.23016512082029   -6.83940530626468   -0.40162823283508
C          -5.28395218463522   -6.02123300346598    0.14001660749006
S          -4.46227490666206   -6.57970583362480    1.56774787454007
C          -3.47210490663945   -5.15908300429385    1.53411237483230
N          -2.51557229744125   -5.00092315024417    2.54523943170219
O          -1.81695300989555   -4.00500065966565    2.51094784645662
O          -2.45892265122612   -5.88131216688345    3.38679030703794
C          -3.76267546440626   -4.31577205768246    0.49385164890634
C          -4.81582790016228   -4.78457792559001   -0.31218550646517
C          -5.37863799272665   -4.05091008765030   -1.42335931578888
C          -4.67619033605443   -3.26632812931067   -2.25668232469613
C          -5.30168673396389   -2.65211242754678   -3.39149946633104
C          -4.68602025229284   -2.07026420526461   -4.43033345557681
C          -3.21354187104446   -1.83294186896030   -4.53463236345452
C          -5.47205886370280   -1.65129522621790   -5.65155808518693
N          -6.75292407983618   -2.29414965991747   -5.73843458870588
C          -7.91384534731714   -1.66276732318498   -5.86390122867228
C          -9.12859197598912   -2.30363999461969   -5.81629682549364
C         -10.38694511492794   -1.71645800798708   -5.96604721794574
C         -10.74086269764413   -0.42058957314754   -6.28706806977787
C         -12.06854948405049    0.04827449792047   -6.38104993000257
C         -12.18866638398566    1.35927860443034   -6.74621634654293
C         -10.95586079313420    2.00056924770819   -6.97051076489593
S          -9.64101963957879    0.89444810447524   -6.68277941463893
C         -10.73302414231234    3.30879301805659   -7.38018309444293
C         -11.68975733955675    4.30769789295419   -7.63422814703502
C         -11.15589240708708    5.49320675289319   -8.05766350171593
C          -9.74867706763788    5.48749902913646   -8.16231481933225
S          -9.12390116824831    3.92693408997060   -7.68579910728273
C          -8.88471647684330    6.48567646778534   -8.58484696230939
C          -9.30669349592648    7.74271370390007   -8.99778658083402
C          -8.51882233579910    8.77817247975963   -9.47845539142254
C          -7.07863613505343    8.68622253749345   -9.63016764783194
O          -6.40400718866959    7.71452391410623   -9.33404872208323
N          -6.46173256765706    9.81569921029984  -10.16151975385286
C          -7.08951587163828   10.98417869692788  -10.53203875898144
O          -6.46410789415590   11.91699436765189  -10.98692559173693
N          -8.45509435273060   11.02883778653962  -10.35561539631271
C          -9.22816082928158    9.99595235158088   -9.84981256063976
O         -10.43295855940359   10.14238562116712   -9.74064032308684
C          -9.15433972423493   12.24489226339300  -10.73163939399388
C          -5.02208120205982    9.79150564425557  -10.35630596098555
H         -11.51501800304413  -11.37053760168891   -5.60417475046793
H         -11.05357341108302  -13.11354616478322   -0.98745217883305
H         -10.02447678031504   -9.51607453859679   -5.07967507196524
H          -9.52131078088047  -11.22662065394083   -0.42120001940939
H          -6.33146637784840   -6.14320702741425   -2.35998977923588
H          -6.58443467717979   -7.61731730296676    0.18336608532933
H          -3.25506112997336   -3.37984934556247    0.34859942137198
H          -6.44339144915530   -4.16516627110510   -1.58222089587566
H          -3.60831782482350   -3.16999646285839   -2.13140603842235
H          -6.37829867532670   -2.75347747068706   -3.41686874263893
H          -2.75213454751487   -1.73762319285221   -3.55679750544197
H          -3.01875674693663   -0.92378139181896   -5.10011233817227
H          -2.73432703996148   -2.66029585993595   -5.05941206431858
H          -4.87713967637525   -1.90821505077504   -6.53918920542837
H          -5.61383178650161   -0.56483331402208   -5.65589615185045
H          -6.76780196905761   -3.29722790527132   -5.54994415633143
H          -7.85829767960703   -0.59289132679718   -6.00740950676590
H          -9.11379436626913   -3.36932060297419   -5.62894192035315
H         -11.23118649803390   -2.37922119304285   -5.81712555424511
H         -12.90438692679773   -0.59823576790673   -6.17775236819491
H         -13.12686587454348    1.86881293741420   -6.86845677146443
H         -12.74321567641587    4.13601685229577   -7.50267300458313
H         -11.74213524143657    6.36084445942537   -8.29878029039085
H          -7.82752865757374    6.26761297729137   -8.60699343787827
H         -10.36457053545198    7.97557824316751   -8.96251591311322
H          -8.42262901650612   12.94839065908109  -11.11993494115438
H          -9.65857318009854   12.66008436184585   -9.85909901747487
H          -9.90339188943355   12.01418380707852  -11.48899986393292
H          -4.66285154169595    8.81858250954903  -10.02993492119817
H          -4.55708097415961   10.58543431478722   -9.77249910962959
H          -4.79067330724028    9.95072154203889  -11.40919123567104
