106
 SCF done       -188.186762749482          0.000763002874
C          -6.12888739046216    3.32472688154873   -6.99409034304590
C          -6.82433251070820    4.41245887422268   -7.44130798107836
F          -6.52230666661471    4.95748591801980   -8.62960675091012
C          -7.86346202258543    4.96776919086174   -6.67021692739031
F          -8.52356100639248    6.03347213401514   -7.13714974241798
C          -8.18738371571600    4.43091478677836   -5.45475453415675
C          -7.47027895853308    3.32801047668296   -4.95209130748134
C          -6.43391893726459    2.75318989385390   -5.74366641124844
C          -5.69701445296396    1.64979720500716   -5.25838984846380
C          -5.93943810332351    1.19239870771907   -3.99152940277573
C          -6.93704408265757    1.80257543065601   -3.18213711622690
C          -7.71430846375916    2.82074270616304   -3.65433721245498
C          -6.87214878493150    1.23499280063404   -1.81393364913994
O          -7.60442103562284    1.49821249294873   -0.88737733087694
C          -5.66232684868133    0.37290495833803   -1.81513932883445
C          -5.24552878956175    0.19806596130899   -3.18751775439865
C          -4.44950211416969   -0.81115652445159   -3.66489651972420
C          -4.28045975191795   -1.06172237762782   -5.03952641889801
N          -4.16542892798241   -1.32520361766075   -6.15161710998370
C          -3.82612254271517   -1.76109841206402   -2.83286125975817
N          -3.30664299387903   -2.55959355060200   -2.19122416473689
C          -4.95425694457128    0.02445757925322   -0.70234782436711
C          -5.43163054668876    0.08555940209170    0.63706420433988
C          -4.73101395553837    0.57489263552403    1.73519961786630
C          -3.37003973060926    1.16135109348472    1.81112196667380
N          -5.56929224345562    0.54381375977222    2.79630621887744
C          -6.78487758198690    0.01267277634517    2.44674500957684
C          -7.85523688343367   -0.18798904945130    3.45614925707885
C          -6.73836035382982   -0.29525323233127    1.10938983840254
C          -7.70990429830513   -1.00726103214587    0.31396711078702
C          -7.33794952806883   -1.91334349362156   -0.60360192225636
C          -8.23481915896627   -2.54570519396609   -1.52576988405794
C          -7.89761089902768   -3.42263676656561   -2.48400622896041
C          -6.53395102330501   -3.98966693589834   -2.71324702097566
C          -8.93264043319985   -3.81435966163689   -3.51871579261861
N          -9.22317473533169   -2.68862879995429   -4.38422713086271
C          -8.37847346675706   -2.25203099023857   -5.33238226118103
C          -8.51230921762000   -1.05407027064976   -5.96941649458702
C          -7.70533233651054   -0.64380667472582   -7.03868805512361
C          -7.93773608052557    0.49235824297889   -7.77317528553380
C          -7.23219081625141    0.95523661246854   -8.90466946286041
C          -7.74797839674033    2.08722233127775   -9.46538138693659
C          -8.88450932972132    2.58895646625671   -8.79616232578234
S          -9.28729242258355    1.57630369331848   -7.43493048785176
C          -9.62365504269706    3.72256398711045   -9.09759451480074
C          -9.38257584700258    4.67525919429652  -10.10400542377378
C         -10.29406362580854    5.69337755311023  -10.12385812528266
C         -11.30368942487509    5.58485343071041   -9.14651513174739
S         -11.04901167458955    4.15809843697474   -8.17530265328895
C         -12.36773578556691    6.45340184680050   -8.96128287321078
C         -13.36774252964364    6.24951314785832   -8.02552292608544
C         -14.49612436015200    7.01610457339730   -7.79082460786884
C         -15.64576276830734    6.39598150976106   -7.10546114389794
O         -15.66266299360044    5.33509157310359   -6.51232823832918
C         -16.78349365498675    7.31294482125227   -7.33317548363325
C         -18.09551988460844    7.15993608106407   -6.99612591270444
C         -19.02417100420644    8.16082411916573   -7.36511318632459
C         -18.56671423165340    9.30341216824170   -8.08153268137434
C         -19.49674094605142   10.29242519253921   -8.45515880490208
C         -20.81313096831952   10.13666768251300   -8.12142786380659
C         -21.28276605099460    9.02185551831972   -7.41625901321163
C         -20.39236122633852    8.05153277869071   -7.04681707538599
F         -21.70525847899610   11.08352981015078   -8.47845129416205
C         -17.19571873950247    9.43887161784754   -8.40827983307523
C         -16.31690749584515    8.46034759042350   -8.03524922301502
C         -14.86721106785845    8.33468530923960   -8.21130139192006
C         -14.03072791628585    9.38044806710780   -8.53722690566008
C         -12.62881260854231    9.35131472668070   -8.41587028076611
N         -11.48823639503211    9.41666760804130   -8.29151951067630
C         -14.48110113320893   10.65597735183626   -8.92258272250855
N         -14.78342278355710   11.71074754239249   -9.26590673518121
H          -5.33875091132323    2.90994200841684   -7.59980188487087
H          -8.98577970515648    4.86949903294817   -4.87735666268705
H          -4.92312345876792    1.22551978107185   -5.87873177799469
H          -8.47685803054296    3.26598669046031   -3.03365494499001
H          -3.91396891691377   -0.25896579180462   -0.83026704716159
H          -2.70188698569901    0.65481036666529    1.11832334215906
H          -2.97038911523973    1.06852610761577    2.81912844063645
H          -3.38703961570943    2.22001739290587    1.54705824710554
H          -5.33768649459060    0.87217173711855    3.72078500537168
H          -8.01952676328651    0.72515520842164    4.02767282251548
H          -7.58908120591484   -0.98306744668275    4.15413373967516
H          -8.78166922309163   -0.46212097363477    2.96178412637295
H          -8.75421580379828   -0.78143065645342    0.47953124968490
H          -6.28795685005927   -2.15355580350527   -0.69301574996395
H          -9.26934590140939   -2.22858214599341   -1.45777615649733
H          -5.84241419611799   -3.74998323196040   -1.91318087469532
H          -6.11647167310258   -3.61393860396686   -3.64946840078433
H          -6.59717871426732   -5.07480740689108   -2.79576451081185
H          -9.86836654587769   -4.12255708022364   -3.04635355675160
H          -8.56321330420243   -4.63658794221402   -4.13548274759367
H          -9.88802248937257   -2.01349332349681   -4.03328374298600
H          -7.59767300580535   -2.94136463312416   -5.62419988498424
H          -9.31549244312377   -0.39241265428131   -5.67022866014928
H          -6.86577663121050   -1.26361818931569   -7.32372288076803
H          -6.37158762683768    0.42824892003602   -9.27761708850762
H          -7.34376728984056    2.57283883969448  -10.33498774575523
H          -8.54398834120454    4.60113780925169  -10.77251345002314
H         -10.26617790914125    6.52148612573717  -10.80890695121446
H         -12.41191700689300    7.30098760467834   -9.62888269583939
H         -13.33827174635017    5.31857186275685   -7.46560231924717
H         -18.42549433518591    6.28434396787359   -6.45709322750474
H         -19.16987978432461   11.16624500443447   -8.99707807981519
H         -22.33299671453283    8.95244700414608   -7.18060862427959
H         -20.73019038235161    7.18193412751734   -6.50285429696686
H         -16.88081375574714   10.31309662508559   -8.95543000053240
