106
 SCF done       -206.023389662133          0.000956497658
C         -12.59622051616229   -7.08366792185245   -7.14489234733658
C         -13.46244152566900   -6.21829523741047   -7.75317962361917
F         -14.22142089581634   -6.63289444557098   -8.77673048189072
C         -13.56747513362037   -4.88390871613811   -7.31527711037020
F         -14.42545897972905   -4.05537730755174   -7.92845624931965
C         -12.80285857382583   -4.43169502375444   -6.27621321677115
C         -11.89844068510437   -5.29774012042870   -5.63273460734446
C         -11.79361745219833   -6.64816578097557   -6.07221953303378
C         -10.88917730250500   -7.53507497876675   -5.44170481443585
C         -10.11127048252312   -7.08311580578954   -4.41028354997743
C         -10.21992120408852   -5.72991287023605   -3.98073978490540
C         -11.08653342188470   -4.85307615769648   -4.56470807764165
C          -9.26235203305815   -5.50245569132049   -2.88216924227125
O          -9.08822558290556   -4.45694998474677   -2.27266590000774
C          -8.57282116665175   -6.76966668081566   -2.67375059206839
C          -9.09153826077405   -7.74768784255741   -3.59724208920430
C          -8.70851295113767   -9.06086896884653   -3.72782575453998
C          -9.26703747712869   -9.95345864413487   -4.66497608218640
N          -9.67809739227401  -10.72860022470944   -5.40607108313659
C          -7.71396612057792   -9.71130131515647   -2.96968389468062
N          -6.91937993231020  -10.32496108489796   -2.41079382632749
C          -7.56301350227132   -6.96667215515059   -1.75241639511432
C          -6.95793763291381   -6.06899754070371   -0.88660741408302
C          -5.85623408294724   -6.48909829287545   -0.08992106660145
C          -5.27603462941991   -5.45064739678573    0.66894787659065
N          -4.21293762014842   -5.67057235623107    1.45322604068801
C          -3.76676249926107   -6.90422132616012    1.47428410519975
C          -4.35044888585841   -7.95858860627439    0.72909403342681
C          -3.80131568975547   -9.34862579297907    0.79631308196540
C          -4.85144353198655  -10.40857092140608    0.48336704428376
N          -5.38762568729932   -7.73940123963232   -0.05298985098083
C          -5.95007195088534   -4.20870307649694    0.50237181275963
S          -7.28217442669386   -4.37430302654405   -0.61201192986150
C          -5.53291163054442   -3.05184109913146    1.13636887546123
C          -6.12274655794209   -1.79928790305654    1.15461340811697
C          -5.56935770598739   -0.67273971243158    1.79728401783736
C          -6.35125178040936    0.44579715833592    1.73054164309036
C          -7.56630787843985    0.24353256432645    1.05119241274034
S          -7.66905762073639   -1.39488198116573    0.45007538892284
C          -8.60295664246717    1.16324540424998    0.90679539657927
C          -8.60182779088591    2.50522351270347    1.32651566172632
C          -9.79808007606210    3.12851543214546    1.11299130395837
C         -10.79205159083620    2.30568857331698    0.53732041593452
S         -10.14500966030738    0.72006524522272    0.20818467397929
C         -12.09925976685540    2.74060330914019    0.36360008028842
C         -13.20456524939136    2.02978243267419   -0.06854855436409
C         -13.29152705697142    0.69880232233609   -0.54748045188127
C         -14.62378282216256    0.25870574907874   -0.77790852992816
N         -14.85883469117625   -0.95751811727034   -1.29530228139415
C         -13.80609937930910   -1.70908158764918   -1.51720850827073
C         -12.48296484757160   -1.30145398118809   -1.24585034120542
C         -11.29986714432098   -2.16766268521188   -1.52178945308442
C         -10.43713107922273   -1.56600413288218   -2.63286101831261
N         -12.24915964740472   -0.08673772938038   -0.78153501515050
C         -15.59626781882169    1.23351427935245   -0.46475943819066
S         -14.80260673545892    2.71521268690439    0.00654307236020
C         -16.98893312552774    1.17181642657361   -0.50639730508554
C         -17.80568353967398    0.06635091236251   -0.54220313892661
C         -19.19958890063823    0.22172153251998   -1.02539055807890
O         -19.78567795150498    1.26015471151358   -1.23737237370760
C         -19.69655047816976   -1.15598433047354   -1.22921908307024
C         -20.89073333643267   -1.57222646141996   -1.74044592819563
C         -21.14341089277415   -2.95867466261838   -1.85482912905342
C         -20.14573054684563   -3.88671842916333   -1.43909309655601
C         -20.40329883203403   -5.26700350474953   -1.55633217204749
C         -21.59599655014266   -5.70559711794097   -2.05937834327633
C         -22.58162637332623   -4.78718590009495   -2.46976872447281
C         -22.36123901419893   -3.44176643113618   -2.37051660175093
F         -23.74281007113392   -5.24501022962845   -2.96023120546827
F         -21.83925596180379   -7.01977204353623   -2.16629361522868
C         -18.91931055484388   -3.42408345661696   -0.90729870364236
C         -18.70013169519563   -2.07787597760245   -0.79876794422620
C         -17.57520322117120   -1.32094496548052   -0.25186728228731
C         -16.61193453969857   -1.83954712490440    0.58202826235705
C         -15.74794739521712   -1.05227466530941    1.36327622264322
N         -15.04778459415272   -0.44833520098799    2.04570892193265
C         -16.42220873532784   -3.21430347295165    0.81185007839627
N         -16.18986301580982   -4.32225829762967    1.00691298702992
H         -12.52811955546592   -8.10267292392373   -7.49242160443674
H         -12.89501335585610   -3.40603368196701   -5.95449936253940
H         -10.83431467215577   -8.55059108304799   -5.79822748575359
H         -11.14671682146956   -3.83032133104457   -4.22738229418952
H          -7.12349229967879   -7.95499312525434   -1.68244169262351
H          -2.90964833676999   -7.08734434501023    2.10829817826940
H          -3.36783308119373   -9.51318552986149    1.78599942889231
H          -2.98656315051451   -9.42040428154796    0.06825981846531
H          -5.65890027722307  -10.36449110839952    1.21010230244193
H          -4.40450435138122  -11.39832385417668    0.51958014375019
H          -5.27362638887565  -10.24786964511274   -0.50366871688073
H          -4.61776551300237   -3.15985124549857    1.70742308701609
H          -4.61530351529390   -0.72030654915674    2.29118406083183
H          -6.09083125175336    1.39026429895355    2.17204104544985
H          -7.74624818757100    2.98177275665572    1.76978878398794
H         -10.00157652571855    4.15223382715303    1.37407808134976
H         -12.28719782756374    3.76367153556254    0.66737733426463
H         -14.00750537301623   -2.68636023921672   -1.93601767911029
H         -11.62609637930737   -3.17116845797190   -1.79579229577198
H         -10.69133201661879   -2.23770743200174   -0.61873694509292
H         -11.01139869307398   -1.45448283370621   -3.55143361249829
H          -9.58775539430040   -2.21740019101877   -2.81396311758103
H         -10.07623355093106   -0.58649322833293   -2.33323128094083
H         -17.51111175388203    2.12224083826277   -0.56659618972630
H         -21.63554122290798   -0.85557433144211   -2.05123669876314
H         -19.66031132939166   -5.98390933560747   -1.24365962100472
H         -23.12635303161522   -2.75137553938728   -2.68908812935391
H         -18.18061441435763   -4.14831747908623   -0.60331904136804
