82
 SCF done       -157.973943996617          0.000650938486
C          -3.40538571014530   -2.96859715067571   -4.87827526828099
C          -3.27288078782974   -2.59489467495295   -3.56452469219711
C          -3.61108644721017   -1.28168618159194   -2.99489987898973
O          -3.47525029754346   -1.02452873773551   -1.81750732311321
O          -4.08494749084405   -0.34786297057386   -3.82306718046015
C          -2.74237166987021   -3.67157254795424   -2.76071536030586
C          -2.50320163297189   -4.79427411410407   -3.50570696733963
S          -2.90882045771143   -4.57326713984916   -5.15937847673560
N          -2.54652289870267   -3.47738944803198   -1.41874055739323
C          -2.05795603773951   -4.29964878132916   -0.46846725361252
S          -1.51348253296898   -5.91126288479745   -0.78617706299836
C          -1.12080764113240   -6.10801374203926    0.89596597643985
N          -0.58251048802311   -7.33661654530533    1.27190730511036
O          -0.30084598241368   -7.50832807325739    2.44368190454013
O          -0.43341587122370   -8.15932604528176    0.37879759674071
C          -1.39594121080164   -4.99794270060013    1.64708382216072
C          -1.93545262839192   -3.94244326857804    0.88853324208791
C          -2.32226239852357   -2.65864059332066    1.40168434485568
C          -2.27833615451916   -2.28978993024673    2.69804724868578
C          -2.67796086025204   -1.00389753907143    3.16067965546137
C          -2.68270517180580   -0.57541459075531    4.48198298730885
C          -2.26867430372673   -1.42435047285470    5.52083510843826
N          -1.92030576966855   -2.16235214517475    6.32670003722740
C          -3.14308349807774    0.76111105480517    4.62367446387015
C          -3.47384219438755    1.30757381796134    3.38865643418236
S          -3.24056958300898    0.23808662011571    2.06182031585830
S          -4.05386904738675    2.94099747126996    3.43558249785399
C          -3.85394249695502    2.90156748434101    5.15781011274176
C          -3.36767044626466    1.70333999622910    5.67113350933144
C          -3.24122091176511    1.76298220697634    7.08084954240372
C          -2.78304120010852    0.73791498910709    7.91614679710169
N          -2.41526496273263   -0.06600079760854    8.64905751286010
C          -3.63703532793286    3.00058756933471    7.60713742503729
S          -4.16489723986113    4.10599539130312    6.35022390845326
C          -3.63125363498505    3.33726339700959    8.96815363146862
C          -4.02356123727470    4.52316650452152    9.53778972567972
C          -4.02020291226609    4.81302120912227   10.92554819455896
C          -4.47327673841221    6.05842430701715   11.23975444764972
C          -4.85524398252117    6.82726433333925   10.12017142328006
S          -4.61778946223203    5.90869741066755    8.64500011884144
C          -5.35866107632663    8.11454933572900   10.09511257170299
C          -5.61329484769874    8.96732259541115   11.19356700096163
C          -6.12915334234470   10.18031080991359   10.85176714260200
C          -6.31138903900047   10.36939911540263    9.46013075178886
S          -5.77807408452079    8.91683358221194    8.60518496908138
C          -6.77192070267616   11.43159960427686    8.72620393166050
C          -7.33193622070248   12.65713647385333    9.15141384735856
C          -7.60119220803393   13.71635457520779    8.27878555208474
C          -8.17832823756593   14.78261519020049    9.00975302115213
C          -8.61025868923145   16.03307444788287    8.62760289825254
C          -9.15717336791049   16.86592333751073    9.61749855022713
C          -9.66747271983389   18.15403133368374    9.55757414201820
C         -10.10649190777522   18.54436355078074   10.86330637066064
C          -9.86651136582831   17.49281270951935   11.72750872448539
C          -9.26992826128943   16.41822737834805   10.99496200933968
C          -8.84134580945370   15.17766234766916   11.38003709274882
C          -8.28212909252374   14.34005484341046   10.38881271851216
C          -7.76781909552159   13.06077354374922   10.46105570143523
C         -10.69588078788336   19.80788764788839   11.23541661559340
C         -10.90775985019879   20.83464311599964   10.41655673133521
H          -3.76953638105135   -2.39766616338473   -5.71160261135861
H          -4.15670755276306   -0.64271648821940   -4.73915784127938
H          -2.11728492439891   -5.74185526063845   -3.19527850714097
H          -2.82466833845696   -2.53261038837108   -1.12669393941959
H          -1.20603968883347   -4.96327322946397    2.70389843541284
H          -2.68220110294500   -1.92860384309729    0.68760005896297
H          -1.93757253637765   -2.96872480359193    3.46692342595180
H          -3.28197395084513    2.56138433630898    9.63825358998987
H          -3.68493400026106    4.08547225528206   11.64330891293320
H          -4.54091679008362    6.44059101963586   12.24253460969569
H          -5.40602193386804    8.66404898704335   12.20426801653646
H          -6.34821494274324   10.95006847747787   11.56756564429006
H          -6.69847384768189   11.32242448556667    7.65046843805215
H          -7.39323765020164   13.72435615472526    7.22472647282184
H          -8.53677289167678   16.36892925417122    7.60288795532285
H          -9.72634832389973   18.76367208566260    8.67468026439809
H         -10.08699302147035   17.47375798138294   12.77934577866873
H          -8.91951805457296   14.83813089284367   12.40355656634703
H          -7.74256465548557   12.45454908580460   11.34661617498630
H         -10.97396795573796   19.89012895325908   12.27904069564259
H         -10.64656586514488   20.80189346877280    9.37268050201818
H         -11.35156556473284   21.75061451300644   10.76621774522189
