70
 SCF done       -142.187894198887          0.000662603129
C           2.01864188118406   -4.58359366944581   -0.65701333826430
C           2.04733529690230   -3.66658075480344    0.36147412050306
C           1.11908624012467   -3.81055757293007    1.48825657180208
O           0.24755379257793   -4.63899733325830    1.54388316467669
O           1.31804480863566   -2.92511327226438    2.48843002882332
C           3.02770221050309   -2.63708172302038    0.12865522740946
C           3.68332629883469   -2.83352690775929   -1.05617924137663
S           3.14138691077620   -4.24060771652362   -1.88319472417299
N           3.20098943103702   -1.60473865847557    1.02390059214270
C           4.07780418459138   -0.57843972608574    1.01484109268452
S           5.35300187853641   -0.43179561068033   -0.15075316483241
C           5.96121276558561    0.96850786301332    0.68072948005431
N           7.08312514372023    1.59519018862578    0.14671066782573
O           7.51914370274084    2.57711235863497    0.72372755526366
O           7.55097587327192    1.10803994782136   -0.87274315908860
C           5.22449733149610    1.28992351474449    1.78756390777918
C           4.12398897775311    0.43570562505981    1.99277735062165
C           3.22650326435097    0.64371858026986    3.09282621505668
C           1.94390441407067    0.22383157870220    3.23608092942481
C           1.18349059964672    0.48740190089560    4.39581341357787
C          -0.09587099720283    0.05060423439732    4.60270708703204
C          -0.89905412737697    0.26820695148686    5.75162494273183
C          -2.12599920399733   -0.31563709250412    5.70205283175008
C          -2.37796031079007   -1.03413653748270    4.50998288761055
S          -0.99326896866012   -0.92610826994717    3.43943780386912
C          -3.50644593794933   -1.74698191554782    4.16964904983844
C          -4.67646034856018   -1.92661452059858    4.94661055906133
C          -5.62497278028235   -2.69926422675945    4.35702580351322
C          -5.26377126992345   -3.17737652366421    3.06668265434588
S          -3.65704772860782   -2.59490462569184    2.64142490227716
C          -5.96934802608065   -3.96374738084024    2.20576026072051
N          -7.19286337338465   -4.48750173115081    2.51000333694130
C          -8.03305876976687   -5.17361821565951    1.69323342713302
S          -9.15464873902057   -6.28025391234506    2.43489047078428
C          -9.73557948586407   -6.72763672942845    0.86031806429958
N         -10.77267377123790   -7.65935558150964    0.80889431481618
O         -11.19994600336825   -7.98235722721788   -0.28473785175338
O         -11.17549782652867   -8.08421238012806    1.88256038203881
C          -9.10395354084278   -6.06651240998560   -0.15767414114715
C          -8.13111987684903   -5.15216871067384    0.29384040395521
C          -7.42861322060567   -4.23129357712901   -0.55828206088284
C          -7.33677853115447   -4.34180088153732   -1.89774171716935
C          -6.66866748491584   -3.39409829722930   -2.72409353723788
C          -6.56788645295559   -3.40175254641360   -4.10937815047824
C          -7.16777512912574   -4.41963335543723   -4.97395181106666
O          -7.80623103327944   -5.37962601717852   -4.61023873921779
O          -6.93616914728723   -4.18239951895072   -6.27674813104463
C          -5.82185381525627   -2.30414617199646   -4.61082292938121
C          -5.36649312345866   -1.48695455700461   -3.63279514921210
S          -5.83108184881690   -2.02058568237440   -2.06430330779298
H           1.37547929046397   -5.43908029150905   -0.71319920959436
H           0.63610417099416   -3.04234010986398    3.17061748667814
H           4.44655325363851   -2.24143628557298   -1.51433683972835
H           2.62631951040675   -1.68441078192078    1.85848590197292
H           5.46254992488694    2.13046998398012    2.41410192960357
H           3.63994457176390    1.25729025031444    3.88358582637056
H           1.42830984051904   -0.30237211014724    2.44484809541956
H           1.64544345536537    1.06012402090719    5.18892718916386
H          -0.53561890292010    0.85047567019283    6.57976449953773
H          -2.85653719075234   -0.25206231409431    6.48821899374303
H          -4.78279488520102   -1.47992100243875    5.91867261687018
H          -6.57393278498963   -2.92562223228034    4.81131517676668
H          -5.55483113442971   -4.22669626362050    1.24640644258055
H          -7.46236457938252   -4.45422135774878    3.48544449973605
H          -9.36687548694195   -6.21790915949452   -1.18855906131264
H          -6.98275278163626   -3.36964384396982   -0.07836598496528
H          -7.76492186433036   -5.18132901898924   -2.42482478088725
H          -7.35245334254927   -4.87730749181259   -6.80974424966542
H          -5.64462692112766   -2.15073340496411   -5.65909757517741
H          -4.78133827688860   -0.59416545891263   -3.72794930328962
