114
 SCF done       -229.118055513562          0.000451762074
C           3.21470571469540    1.94641484189345   -0.46520519817469
C           2.15246787382171    2.16383470200891   -1.30557099303720
C           2.23359228179135    2.13825326766270   -2.71280016037743
N           2.23964652998558    2.14378548645430   -3.85977449333620
C           0.84198629753207    2.33553785076734   -0.81924239607810
N          -0.23201842747476    2.42967658893537   -0.42355833567945
C           4.54287093256001    1.48945562217112   -0.86800837595108
C           5.19042111400806    0.93784563608563    0.25359524213564
C           6.45860880306686    0.40000171964272    0.16404613311852
C           7.10411654407499    0.43996133492109   -1.06766414004951
C           6.47361810560429    1.00730300304730   -2.17923002682635
C           5.18228901453224    1.52791053337236   -2.09249481587941
C           7.24448080323257    1.07288638680880   -3.45294187134466
O           8.43473483493334    0.88517907832804   -3.51882793408380
O           6.47657969913410    1.36872550257850   -4.49719222796647
C           7.13415345127834    1.46081529159662   -5.75410801338217
C           8.46696458599432   -0.18179386928736   -1.22226457946787
O           8.63905751015845   -1.30937964891982   -1.59767317832160
O           9.41627887451653    0.64753750060565   -0.80266663696765
C          10.75456971905140    0.19357311055791   -0.96785269898806
C           4.31948109933795    1.07773080339718    1.44296666667939
O           4.51551133673377    0.67685995047176    2.56549946319185
C           3.15694001615040    1.88192446345719    0.97443311424607
C           2.32952563999107    2.42792963435745    1.91167389868907
N           1.48005969676162    3.47423852207099    1.81993843304890
C           1.48551912183290    4.50798083151157    0.92767886314026
S           2.87602348147747    4.87148544161735   -0.04522790771151
C           2.13320738571945    6.35965391227077   -0.53106599096900
N           2.85091853802770    7.15620751216370   -1.43271681858036
O           2.35706972294133    8.20982714095937   -1.78092770077798
O           3.93064248183648    6.72016868553351   -1.79514739529527
C           0.90229838371549    6.56366488921480    0.02582047274060
C           0.49714889699104    5.50260967930313    0.86355834352956
C          -0.76382692499953    5.50200069337031    1.53784170505808
C          -1.44024294736167    4.42711400932296    2.02587889216504
C          -2.66490853214678    4.55856919377972    2.70806923497404
C          -3.39249916378449    3.51872522146258    3.22481017824835
C          -4.61649406082159    3.62436891934358    3.93412466426229
C          -5.11837998862502    2.43616473476358    4.36244779523871
C          -4.32453159357187    1.31776807880270    4.01284422646712
S          -2.91129097138612    1.83148869994173    3.11886510251252
C          -4.57883634936454   -0.00585340928232    4.31210107228452
C          -5.68305789543760   -0.51477731499166    5.03622887778673
C          -5.66905187917595   -1.86259415049644    5.20332192282255
C          -4.55415176051440   -2.50953118603694    4.60308052693808
S          -3.52915649658425   -1.31391406983350    3.81424963164784
C          -4.25488348255813   -3.84014331675777    4.51824784906458
N          -4.88833582239893   -4.84250568925555    5.19478751863938
C          -5.38106238041706   -4.78057333931448    6.44985399131119
S          -4.86419164658065   -3.57478854826834    7.59844565435802
C          -5.69436136866250   -4.44184448925297    8.86005740325301
N          -5.66606497885811   -3.88540339196424   10.14188741506160
O          -6.24882765495626   -4.47649466032898   11.03247257789728
O          -5.05455674202616   -2.83641948092712   10.26677750357450
C          -6.32031026510542   -5.57702332384249    8.42809264329252
C          -6.18544993986414   -5.77655652877800    7.03982848927669
C          -6.83368625547264   -6.83330956136425    6.33279057081529
C          -7.23427639667841   -6.78598433801367    5.03569950103900
C          -7.90892311334983   -7.84231358747774    4.37712453441397
C          -7.80172511723056   -9.18599378959415    4.60243292670519
C          -6.80520264101147   -9.98604384252518    5.26909208551495
C          -5.46949834760828   -9.68615112926476    5.41510560713810
C          -4.51730529286393  -10.55967195605317    5.98022682060029
N          -3.70291158974933  -11.22002980284369    6.44613225827650
C          -4.90611661590700   -8.48887930168134    4.96028880999878
N          -4.42005026273705   -7.51652460851301    4.58070514212041
C          -7.40313373956559  -11.29558445202548    5.53289941394124
C          -8.63986577036255  -11.37345014077933    4.86449300852470
C          -8.90129166052087  -10.09094987585683    4.16905126519072
O          -9.82388017565581   -9.81367262814655    3.44123759523882
C          -9.42859234747844  -12.50393964061074    4.92529238801126
C          -8.98009461687723  -13.57903780315885    5.68629108491713
C          -7.75524222829067  -13.50729370513825    6.35643017891418
C          -6.95341638210387  -12.36761646704409    6.28156463182899
C          -7.34158576699346  -14.68505418819142    7.16972385649858
O          -8.07715683752455  -15.60499285980281    7.43095491793609
O          -6.07680980252114  -14.60532306056231    7.57517801893598
C          -5.59605584045557  -15.69869490166178    8.34624852819868
C          -9.79459702892463  -14.84476629934683    5.74499159771295
O          -9.66924707986535  -15.74982719210568    4.96669665026889
O         -10.71393023313524  -14.76724879507159    6.70226423766713
C         -11.50120963070100  -15.93594443641441    6.90071599371607
H           6.93262793200288   -0.03351614193466    1.03098018678826
H           4.72666020509420    1.96540802308286   -2.96582269888210
H           6.35318461868187    1.63059852899521   -6.49041246556012
H           7.67380695719528    0.53592559920176   -5.96700353360699
H           7.84440943989293    2.29015648826358   -5.74827950246159
H          11.38625252166755    0.91750605882679   -0.45979627961188
H          10.99427577407820    0.15158724796948   -2.03162129156194
H          10.87455641660054   -0.80103297043719   -0.53380054452313
H           2.41309823297327    2.00734176332467    2.90882536480760
H           0.81552282387374    3.59259781954471    2.57885461212770
H           0.30729913384163    7.43454279244281   -0.18166260042400
H          -1.22845918222124    6.47591603104171    1.62223547852851
H          -1.08811270008918    3.41966021086486    1.84973396982689
H          -3.06023475122644    5.55540181934244    2.85407761523274
H          -5.08192565260965    4.57909453018856    4.10326260127892
H          -6.03364167578544    2.33256264922339    4.91616155894066
H          -6.46072459304658    0.12572502099313    5.41031763693816
H          -6.45756142224674   -2.41074892670568    5.68561410631652
H          -3.48310885720259   -4.16654814273664    3.83653526171663
H          -4.76243696116887   -5.80046412990366    4.82438478316550
H          -6.88428300973127   -6.21586227188628    9.08343653438975
H          -7.10370154138797   -7.69666603961261    6.92825687850906
H          -7.14673042442224   -5.85524990660989    4.49045844338485
H          -8.65757397289356   -7.56069059846605    3.64338143616734
H         -10.36749954871937  -12.54584907671359    4.39524081406917
H          -6.01914714112223  -12.34427774622390    6.81834517130627
H          -4.54479194959374  -15.49619908782025    8.53226909713262
H          -5.71884314010165  -16.63255240435099    7.79443811401395
H          -6.14759104225567  -15.77007056632051    9.28590563766084
H         -10.86637443394944  -16.74169288272595    7.27278168830407
H         -11.96249146998750  -16.24733648964974    5.96153011605605
H         -12.25750303301741  -15.67142089894559    7.63496657418101
