103
 SCF done       -186.683301408501          0.000789664060
C           0.23315099163051    4.73043118962657    3.63568144966350
C           0.86073273704079    4.54809108180905    4.83812808996788
C           0.33285377996869    4.96364316877742    6.07860249994077
N          -0.04638648913664    5.27500912726657    7.11614286539064
C           2.13438061533848    3.96105933902628    4.99224147753576
N           3.17606743909715    3.51661100778971    5.18151986997958
C          -1.02372749498973    5.43308302649877    3.42055779945645
C          -1.24641496460053    5.55942528536973    2.01867464963245
C          -2.34393444291882    6.19950909316573    1.51940097913738
C          -3.28735155276552    6.75190645216304    2.41439824367507
C          -3.07746177716739    6.61977531236656    3.81770199639249
C          -1.93234289796987    5.95134386356333    4.30612671663247
C          -4.02861538097819    7.16936838628772    4.70162212700092
C          -5.13296563278139    7.82088267868197    4.22436258773527
C          -5.33745963752488    7.95247995906972    2.84256273367749
C          -4.43443294395291    7.42972661606860    1.95701823149518
C          -0.14757462345822    4.90827300720752    1.28246646562597
O          -0.03062990087168    4.80075255770635    0.08213802834868
C           0.74929706396527    4.34487631100950    2.33213337284394
C           1.78566905084677    3.52203255654995    2.05706788534307
C           2.22910574464670    3.23231888263540    0.70336157864155
C           2.05051890531290    1.99154797039430    0.17209634026669
S           2.45594056626167    1.87553820230261   -1.49225565959220
C           2.95614087037080    3.53790233886990   -1.49090597915787
C           2.80621248553995    4.15486343790506   -0.24139261912306
C           3.29811077109764    5.46661081897316   -0.04354697947169
C           3.40715357789088    5.98401381499179    1.37059980569819
C           2.36419630054134    7.02845918377929    1.77719476959448
C           3.77967540137863    6.18847182605245   -1.12859817641227
C           4.18644540290976    7.62757675661116   -0.98178158313237
C           3.02304155413746    8.54984096052577   -1.36043517636939
C           3.87920503229922    5.58208707220435   -2.40511643834806
C           4.46012782902494    6.07600118257954   -3.63438975061455
C           4.51711832826001    5.10554700597492   -4.59267299127641
S           3.85691987994764    3.59182599913533   -4.12463483751313
C           3.50722894500541    4.23568594380993   -2.55173361529051
C           4.93760921829772    7.40987860929704   -3.93147375139618
C           6.05329636361743    7.65231316582997   -4.64949349313893
C           6.49837611549281    8.95436660832675   -5.00203232014963
S           8.01564853619851    9.17707865889413   -5.84705507854964
C           7.86402833698594   10.91805505264983   -5.91718821764628
C           6.66900130516548   11.29291819756563   -5.29967974683845
C           5.92450463683921   10.19235400771768   -4.79222082891841
S           4.47085590650400   10.77562232146167   -4.04625680726705
C           4.98830491297280   12.40265487223433   -4.47711043905666
N           6.09778246919654   12.50810342747731   -5.09523396011330
C           8.84412640647074   11.71867922736507   -6.51889139359271
C           8.73017715168230   13.08098296535516   -6.63101540756067
C           9.69713063982020   13.89589408341693   -7.21975762048335
C           9.56535961784495   15.25934637248065   -7.37314996526261
C          10.49955409849407   16.14776064418354   -7.95076268496939
C          10.08851452287816   17.44781549782035   -7.98797329755195
C           8.80233728462822   17.65384161619435   -7.44421969153645
S           8.13571914922459   16.14347533019928   -6.86842688468017
C           8.09712594222656   18.84109786366468   -7.36078546054513
C           8.50018624943056   20.12393407185543   -7.79077944218512
C           7.56469679040856   21.09238339883533   -7.59074034939556
C           6.36546585498486   20.62940710353990   -6.99110820231517
S           6.48320088219123   18.90716397954955   -6.67997887867607
C           5.26627555911943   21.39439959594104   -6.70229558206341
C           4.05979322832007   20.96935666442221   -6.12113458178161
S           3.70141534498498   19.32975122976666   -5.60264112058411
C           2.11560447638927   19.71331874998579   -5.05911455912001
C           1.84430193681431   21.04682089356582   -5.25788307297801
C           2.94085720921313   21.74088584977958   -5.85242817732436
O           2.64503245742979   23.04457274989100   -6.03822569336132
C           1.37557069295685   23.19068005867809   -5.57065057226244
N           0.79281893219776   24.47648295821180   -5.64107925011839
O          -0.34554371485439   24.57883230899251   -5.22060848005922
O           1.45274438080927   25.37802649766414   -6.11221515219480
C           0.83226770275557   22.03027769683306   -5.08625704818282
H          -2.48945740917355    6.28542814482636    0.45264687226042
H          -1.80331435844058    5.86184154867331    5.37323344336314
H          -3.86546995065515    7.06687249929339    5.76442581561059
H          -5.85531057950445    8.23911219013919    4.90913562304514
H          -6.21461537218847    8.46960031351137    2.48343788358962
H          -4.58713876930226    7.52759430017915    0.89213279394411
H           2.25974396955750    2.95798503271254    2.85176336406483
H           1.61853847186361    1.14113551476234    0.66401863224765
H           4.40634875437118    6.40123711124718    1.52033300939894
H           3.32711721266723    5.12735013897752    2.04447745458911
H           2.25953960709996    7.04857664649107    2.86080677910869
H           1.39564626269862    6.80115014534504    1.33953966076352
H           2.65397838465961    8.02371403072851    1.45422194760754
H           5.04382603760973    7.82952081203601   -1.62617759543656
H           4.49078388028583    7.84307829166425    0.04103075457955
H           2.65446979501300    8.32452307390715   -2.35811952734795
H           3.33964199557641    9.59037570836799   -1.33234625538403
H           2.19196782804290    8.41817560112919   -0.67353716000976
H           4.88178557593125    5.22183434133817   -5.59472107386425
H           4.33780006649238    8.24423004553570   -3.60437444574767
H           6.68686618114115    6.83554597784530   -4.96609125504809
H           4.37260473410841   13.23989879399344   -4.21431615215389
H           9.71800827058083   11.21584825426105   -6.91148672721677
H           7.83616645439940   13.55174749554579   -6.24398005456177
H          10.60893088997978   13.44200836918406   -7.58705597598571
H          11.44723773071845   15.79986370649405   -8.32291009868424
H          10.67135703476157   18.25498179291892   -8.39368245097400
H           9.46327375715074   20.29750856509587   -8.23595659223052
H           7.69039476607080   22.12694466985162   -7.85633617111382
H           5.31017768710355   22.44728304521673   -6.94827709535297
H           1.49521809927779   18.95068460559263   -4.63752937093519
H          -0.14871313917475   21.91987548721492   -4.67319557780114
