92
 SCF done       -164.361966396251          0.000734563248
C           5.03477439742993   -3.10745857618107    2.44233258391567
C           6.08027923643209   -2.64172827122938    1.66443253201441
C           7.09039975670249   -3.44118633537269    1.10590883195024
N           7.95707647887451   -3.99992314653336    0.59292045380471
C           6.30886599246214   -1.30423444145307    1.30191508586412
N           6.60098663042273   -0.24588302317213    0.95287788153222
C           4.84942311428507   -4.50200719143604    2.84162535763029
C           3.67073512373466   -4.58764953979126    3.63579263916962
C           3.24634096760682   -5.76797252354000    4.16714030564062
C           3.99813253247256   -6.94313938733067    3.92726847878551
C           5.17717869259786   -6.86538797484794    3.13430819034805
C           5.59040620684044   -5.62341306207752    2.59327592995210
C           5.91948285611415   -8.04046268001989    2.90644491612871
C           5.51976757825157   -9.23750658128757    3.43717568541002
C           4.35849302820211   -9.31301215270241    4.21813539345842
C           3.61350216951470   -8.18927445081695    4.45686250408220
C           3.07209470275424   -3.23907524273039    3.75488230183034
O           2.05402295259024   -2.95068390985917    4.35893328861835
C           3.96153759091058   -2.34613167270358    2.99941828910025
C           3.77501755246662   -0.97597854151748    2.85057276901506
C           2.74670382056283   -0.21767404004917    3.36752495804240
C           2.68019753019803    1.15874065037744    3.14015859212760
C           1.71524153945490    2.07694939833469    3.56943406746309
C           1.94829568553113    3.37359575700994    3.15971837220273
C           3.10771284958914    3.51469716342903    2.39738034778114
S           3.90595793919779    1.97570586062699    2.20215405571756
C           3.67597808459191    4.65284441193864    1.80863323110820
C           3.25247129840776    5.98050321996353    1.78372734777508
C           4.09912611387457    6.81605239531153    1.08297387657411
C           5.22145649788619    6.18185144176549    0.54092330048242
S           5.16840120497877    4.48104431001061    0.92904659573345
C           6.21973705745078    6.79676305082838   -0.22039957032517
C           7.37939642193003    6.28516774828780   -0.75136508577533
S           8.35413640184884    7.38527278108968   -1.76398342787074
C           9.60558812210935    6.20313295779794   -2.09631281594983
C           9.26959650861204    5.00737578086777   -1.41914503034303
C           8.05721386715339    5.03928774502798   -0.69902344572900
N           7.93030619948751    3.80781511400096   -0.15395592524661
N           8.95280915479268    3.01464839605338   -0.48040106083360
C           9.77306571679165    3.70585328306955   -1.23930930248735
C          10.70435201259455    6.32728542053895   -2.90839919743059
C          11.11026144204510    7.40997285335370   -3.68543824237878
C          12.13558844573919    7.37316816514607   -4.60749029770224
C          12.87226506203126    6.26312676184958   -5.04913357820473
C          13.91454424431394    6.29091089720967   -5.98516871444851
C          14.44842596404005    5.05670050032660   -6.29400805453861
C          13.83989540399068    4.00277920190692   -5.61269933790881
S          12.58061422296051    4.61014737342352   -4.57177730476617
C          14.08147353553667    2.62482533189598   -5.63316170210039
C          15.02042190315208    1.88301502788229   -6.35724059572738
C          14.95807717160269    0.53221499816171   -6.11228735316635
C          13.96921643103433    0.15808845843654   -5.18604660473112
S          13.11189566379611    1.57577702278243   -4.62969248914176
C          13.68178325269707   -1.12775259777330   -4.75254503869228
C          12.71293375831800   -1.51505649382355   -3.83986271622308
S          11.60916995473255   -0.41330009549622   -3.00860128256317
C          10.79522381730866   -1.67735260762616   -2.12618554077793
C          11.35808468972829   -2.90913748979356   -2.46000875940395
C          12.41384903084567   -2.81500669734493   -3.40265650774303
N          12.84418943822876   -4.07787409449340   -3.61527986524451
N          12.14282511625765   -4.96281923056480   -2.88019912344302
C          11.25545599105282   -4.29841539675480   -2.18613176820806
C           9.72428108832612   -1.42666817117958   -1.22390038264992
C           9.24464759231063   -0.20927225023759   -0.94335808854566
H           2.34954207258176   -5.81003707592604    4.76772109376201
H           6.48929590899964   -5.59418579524190    1.99697485370642
H           6.81413255200990   -7.97741570079690    2.30373659452078
H           6.09775461047089  -10.13213130229180    3.25754629540807
H           4.05621968636308  -10.26453856515817    4.63058135692593
H           2.71726693659587   -8.24137076366382    5.05840825841068
H           4.51509111571753   -0.44411625754476    2.26451550378763
H           1.97200635158911   -0.68374092114447    3.95776761897592
H           0.87252993118287    1.77478722129590    4.16551288699024
H           1.30943045440584    4.20543634168421    3.39844332155358
H           2.34879366980728    6.30582458681273    2.26660225621681
H           3.92977070571535    7.87120955794078    0.95793868475632
H           6.03888952018617    7.84464001743563   -0.42998420037371
H           7.19458339206876    3.42944620636624    0.42038457720475
H          10.67207713301973    3.26846742975513   -1.62456166692013
H          11.31156120274000    5.43521047256883   -2.92235892926871
H          10.57917834480690    8.34494231327622   -3.55936574827834
H          12.39957776710532    8.30365664129726   -5.09431545600204
H          14.25964909698558    7.21375334384632   -6.41803590812792
H          15.25212260926361    4.90748862846115   -6.99279772519972
H          15.71624516020570    2.34298116632185   -7.03582724532469
H          15.60101881479952   -0.19461198796280   -6.57718506433432
H          14.28411712319831   -1.92123663053272   -5.17861071728043
H          13.57848182938217   -4.40832382573601   -4.21862179398252
H          10.58131154926375   -4.80298155493986   -1.52501793016344
H           9.30225999565461   -2.30917396925101   -0.75906011229471
H           9.65675488798980    0.68064856767862   -1.39006960179845
H           8.42788277006539   -0.06655375360742   -0.25837115640573
