72
 SCF done       -162.276758882441          0.000679487742
O           0.09040659412101    2.84199887269784   -2.47755411822018
N           0.92859616229326    2.27005113809445   -3.34400794948462
C           2.15381533210746    2.50626653109844   -2.94486102738793
C           3.29493539545601    2.04916642221097   -3.64138640489352
N           4.23814556396084    1.70068022822404   -4.18491926648014
C           2.14055329851913    3.28368120043653   -1.74341002319148
C           0.78191071453712    3.45892715943114   -1.50908807637685
C           0.12479592151678    4.14000423752537   -0.46897590534624
N          -0.40343332110079    4.69544534951585    0.38129905836730
C           3.25110460771413    3.77869620570527   -0.94465231423621
O           3.18042331938101    4.49953062208257    0.01963033603394
O           4.42791932452776    3.32218725476162   -1.43284520633718
N           5.55456441360350    3.81250586374049   -0.76512979008114
C           6.57279675432495    2.92638125835521   -0.57346745302424
S           6.61316753271157    1.45112102313736   -1.46271654300787
C           8.14764614019192    1.08767102912346   -0.72752990453307
N           8.75830006011964   -0.11950521909824   -1.05114833530375
O           9.86431218079593   -0.34444271868018   -0.56891108993112
O           8.16083614536357   -0.87491013272407   -1.79596915538208
C           8.58589866807392    2.05741375985629    0.13551620135869
C           7.68959925661966    3.14121622062111    0.24847898985973
C           7.85605006056922    4.28185051854295    1.09799626433838
C           8.94738198452593    4.47370731095509    1.88426175202677
C           9.13995987984033    5.53555427406981    2.78698389810851
C          10.26736348199107    5.61824227997629    3.56717218383194
C          10.60214687360249    6.57119368314713    4.56233021730790
C          11.79370757155604    6.34112461929041    5.18465386984623
C          12.47217818189512    5.19870102012785    4.70724093634878
S          11.54690938576968    4.42592978734573    3.44071549061451
C          13.67931852323457    4.64007138415432    5.07890129614571
C          14.61146586718306    4.99972982735763    6.07691781773610
C          15.69554956756596    4.17604567962367    6.15527740000385
C          15.68826113824571    3.11794942861788    5.21197205987810
S          14.22631764054232    3.21650740006495    4.22572851358239
C          16.59927435165393    2.12444947764347    4.98811218924041
N          16.38688239794051    1.23391124012029    3.98524730146601
C          17.12331441292815    0.17725703094058    3.58838095423305
S          18.54471829231744   -0.33901751228979    4.43197572185984
C          18.71991806463162   -1.64244816117628    3.29361321748698
N          19.81350598406080   -2.48826763389326    3.47322490784754
O          19.96423980745687   -3.40655628920822    2.68802275242644
O          20.54494260676201   -2.23421914764513    4.41945720336216
C          17.74310378249714   -1.66843254777795    2.33181846261899
C          16.81244805470744   -0.62713152789950    2.47530876818279
C          15.69945414480230   -0.34399936034484    1.60743865374356
C          15.27393485625296   -1.08590021891764    0.58084955008481
O          14.22034540088113   -0.60299246314615   -0.15061771887178
C          13.76372229741366   -1.29992374300758   -1.21109794719020
O          14.18736308093651   -2.36252013204568   -1.57437906222678
C          12.70461195648854   -0.52810923383162   -1.87663090201987
C          12.05158949425297   -0.80839185300125   -3.11627421216163
N          11.21712560129469    0.15660959107007   -3.41864579532706
O          11.26596982860269    1.06798198687435   -2.44390429878198
C          12.13683796586887    0.67807004961109   -1.50265703406429
C          12.33222574147061    1.45148126730753   -0.34462668855800
N          12.48488601407012    2.07617725674760    0.60282381603392
C          12.24825396662658   -1.93561175732280   -3.94503096173985
N          12.41899899496512   -2.84498577277031   -4.61567396526244
H           5.25675876028263    4.41069539517654    0.01117224548015
H           9.51515205915717    1.96870220564936    0.66785337961046
H           7.05973331649625    5.01267938282997    1.11516493462514
H           9.74999696001034    3.74994525053990    1.84010418695653
H           8.37777160605908    6.29489260446368    2.89189242946692
H           9.94663246870598    7.39270590936603    4.79227513236497
H          12.20038188434843    6.95805235206356    5.96633568559328
H          14.45276811929953    5.85275251534740    6.71218708330318
H          16.50145184076701    4.29555953769925    6.85689455923918
H          17.49672602352735    2.01670663352934    5.57641572949466
H          15.53864064509608    1.39541373048016    3.44912441142230
H          17.72344333603525   -2.41180104091894    1.55693625660916
H          15.14854908869742    0.57258023676819    1.77536620866998
H          15.68229257128518   -2.03208877830288    0.25617912270010
