73
 SCF done       -150.586650467611          0.000858727403
O          -1.43000977899447    3.15753822766673   -2.09392701489741
N          -2.09157567285348    3.19076500363560   -0.93481763862553
C          -1.23355517062172    3.46221998831464    0.01768163782920
C          -1.60127047337305    3.57016290164497    1.37759763976835
N          -1.88268024277911    3.65737776032975    2.48186282559694
C           0.07929433810801    3.61753359321912   -0.52832599386389
C          -0.12812960600538    3.40681265253106   -1.88715911118210
C           0.78532875970144    3.44076105073098   -2.95434633626542
N           1.54118369526427    3.48103470792284   -3.81401261515101
C           1.30760563507101    3.91345115474588    0.19154813648703
O           1.41471004184629    4.17184322765282    1.36412229423273
O           2.36965081024338    3.86979671965792   -0.64966514845535
N           3.59411399299794    4.19595336463500   -0.05045596328924
C           4.63946145159441    3.37281977303087   -0.37075779338591
S           4.50977040469979    2.29281398267670   -1.70740318798692
C           6.15181016666513    1.79470577216719   -1.42339512380094
N           6.69184240558082    0.81982253644336   -2.26886622392267
O           7.84440028944704    0.47844051529838   -2.07704195373296
O           5.95879145875391    0.37915991239433   -3.13768211018000
C           6.74360352122276    2.43159446914385   -0.36783686619288
C           5.88868317735463    3.36287154918062    0.26181167713970
C           6.22007127979476    4.19291320466161    1.37945561123288
C           7.37360830119289    4.10595871603517    2.09210367347922
C           7.68493957467803    4.94158461637726    3.18061450366495
C           8.83183201257436    4.83597900168015    3.92404331935004
C           9.21765212308406    5.64447735888178    5.02367905422873
C          10.41126620269366    5.30305818407213    5.57961096503257
C          11.04045623976359    4.19992799794946    4.95666743512222
S          10.06219640090801    3.61728405610481    3.62648765731019
C          12.23660363227194    3.60194543105227    5.29379736927058
C          13.12499630256545    3.96165319639164    6.33687863413947
C          14.22022588352437    3.16375747593997    6.42922333816015
C          14.26873975139542    2.11897434884839    5.46629935115913
S          12.84922162219859    2.21266672259295    4.42627611322601
C          15.23277822586569    1.16192886627215    5.33626595810755
C          15.20185614817199    0.14044197455978    4.35163760138758
C          16.10902949706665   -0.84889106509742    4.21648719553765
C          17.30680418159809   -1.00000608925499    5.10138255832924
C          15.94213076570027   -1.89443114081929    3.14638333532395
N          17.16362447291328   -2.06642213518426    2.39805156621092
C          17.62043461153190   -3.27428804427909    1.98676584173763
C          18.62814722276924   -3.46354093763518    1.12469283312004
O          19.01232830157304   -4.76178862658851    0.84763569527861
C          20.02214622437784   -4.97819542484776    0.00866566404598
O          20.67804670204035   -4.13190774601957   -0.55163893866329
C          20.23286851339288   -6.42658855007234   -0.14957981285824
C          19.51388590559040   -7.51129887211438    0.44266854712048
N          20.01222448618470   -8.65980028939621    0.04884402931963
O          21.02782664000750   -8.40663393815925   -0.77736663685729
C          21.18310182758121   -7.07816351900961   -0.91653286431921
C          22.19934830428029   -6.56045826577401   -1.74087980273186
N          23.02837784723220   -6.14942472470401   -2.41397834049767
C          18.42230007829108   -7.41002363119364    1.33177769855795
N          17.54101343055737   -7.29854876328817    2.05237882593979
H           3.43278625105497    4.41050842949091    0.93883819210836
H           7.75799043647246    2.23202899615100   -0.07618332171190
H           5.49277040873819    4.94116496290764    1.66291987096752
H           8.10912966565277    3.35647692849379    1.83454330656724
H           6.98128153382150    5.71653025089824    3.45432778304687
H           8.59579612039742    6.45298034497519    5.36547171875338
H          10.85405062602224    5.80820087645047    6.41920991989860
H          12.92702444662031    4.79628530940467    6.98521748383629
H          15.00123152098487    3.28288208106041    7.15943910368982
H          16.05885273480514    1.19076001063558    6.03193054491526
H          14.35982305783890    0.17176478343060    3.67079561155350
H          17.95127341993942   -0.12389098260547    5.03645138544319
H          17.88531308608106   -1.87266341467904    4.81164040476370
H          17.00364649302166   -1.11195252586805    6.14182728177691
H          15.10556460665318   -1.62498328649231    2.48722341652633
H          15.70415347851693   -2.85492386806738    3.61656374732956
H          17.51640584597466   -1.24984121018993    1.92307080549921
H          17.14603125970562   -4.13904268340884    2.43034835662143
H          19.18310309030394   -2.68806325361086    0.61957527883272
