94
 SCF done       -197.806032107380          0.001503228735
C          11.14309178407520   -3.29925682649471   -3.75259034020039
C          11.25992474148955   -4.60715478954365   -3.40242844974431
S          12.24606677334744   -5.45715916673642   -4.53408797007743
C          12.52384487732778   -4.03112386183699   -5.50267189146562
C          13.36315377356241   -4.05844963280362   -6.72084993066080
C          11.86279984926445   -2.97564041662635   -4.95215399085381
C          11.67168018969487   -1.56126951176559   -5.27286659110507
O          12.16222715926039   -0.90613113720864   -6.16317237884438
C          10.65495921999852   -1.08948111055761   -4.27467979222694
C          10.50843784241787   -2.10293498934141   -3.24454459938797
C          10.06003352621578   -1.94692669274540   -1.95805232380679
C          10.03435312036588   -3.02550716535036   -1.05046283712524
N           9.97895662313741   -3.89243772924391   -0.30031045916953
C           9.58279499095209   -0.74099889916993   -1.41728655108330
N           9.15972296334220    0.21612069860279   -0.94250469853348
C           9.97853791330834    0.06303574911539   -4.51847937064889
C           8.74520590423504    0.50737883428257   -3.96474030855747
C           7.73887542528093   -0.37562080414074   -3.48693431498396
C           6.54779912386538    0.10584439829782   -2.85048047471773
N           5.66111168775941   -0.76228063766426   -2.36408234616174
C           5.88184306259922   -2.05628375908869   -2.48410807177592
C           7.02298837252537   -2.53196700900243   -3.19023480053736
N           7.90746212637603   -1.69018067869342   -3.67625318799985
C           7.25626017134013   -3.91684416801404   -3.38664544074761
N           7.46895641760413   -5.03282152987393   -3.52963371261827
C           4.94677692209235   -2.96866961005193   -1.93672144248137
N           4.20486075656047   -3.73283186076233   -1.51504457977835
C           6.28200713623391    1.51025704295622   -2.69315427183743
C           7.23412630341093    2.37255217092013   -3.28447941618876
C           8.42727416797190    1.87312958038185   -3.92227191194520
N           9.17893969711054    2.86712526690658   -4.41603634330478
S           8.48003680174958    4.25953502207661   -4.10217820481765
N           7.17559496773296    3.70385251780044   -3.34635120069043
C           5.14651218233798    1.87745098062192   -1.96276886722355
C           4.65749999163378    3.11059849013821   -1.57477112017403
C           3.50176741857114    3.24952438033903   -0.76856519158261
C           3.20113421408079    4.53878360406363   -0.42770470055406
C           4.10800377196904    5.46716230380095   -0.96545878724231
S           5.33738163350164    4.68189214692446   -1.91497533270169
C           4.14875091972239    6.85464178047007   -0.79634834708529
C           3.36304696677214    7.68446152928145    0.01558922106441
C           3.77882415167508    8.99235924035329    0.00333465412795
C           4.89761765222181    9.23667229511780   -0.81827969420943
S           5.36258215448738    7.77441964615846   -1.63628497337237
C           5.63249346311464   10.41973331311603   -0.80911096041529
C           6.84033181812193   10.68487139307122   -1.43861049396238
C           7.68225931530466   11.73858199851588   -0.93782214679358
C           9.08748938418575   11.77654566567381   -1.23034811878123
N           9.85650854557347   12.72230592045070   -0.67825823439015
C           9.30863155526611   13.60775544399394    0.12357292022500
C           7.91536001147969   13.56551186452750    0.41727018420678
N           7.14452042888866   12.63736324166175   -0.11651112552637
C           7.33280100738448   14.52964507379524    1.27578911636967
N           6.88891315595772   15.31978874171646    1.97646131701680
C          10.12112907265829   14.62641426280179    0.68529555011889
N          10.74417830132902   15.46262847512111    1.15795051063364
C           9.71514146728109   10.77890263227711   -2.03218731240714
C           8.82551570815326    9.95670981410886   -2.77438719612815
C           7.41508615657746    9.92547316299755   -2.49737477053642
N           6.76583148063410    9.12785743699890   -3.33037742416225
S           7.80834362525851    8.47277412898034   -4.37256139314090
N           9.14566224309653    9.16680202973643   -3.79237044581464
C          11.11416819915118   10.67079894689945   -2.08297533970045
C          11.85466305610139    9.57968748709765   -2.47423022303991
C          13.25843280887040    9.77066094735074   -2.95740205885139
O          13.92056088850003   10.77905286331784   -2.87868700031473
C          13.61136216285629    8.48517634744019   -3.57161684354522
C          14.66695841894726    7.97835798670978   -4.26215648893049
S          14.33935601819167    6.31181250767699   -4.68188234981220
C          12.79585833678765    6.33110969432882   -3.90678489308639
C          12.54179272198816    7.55167225827170   -3.36553095692942
C          11.49981593894791    8.19721865814591   -2.59574185302113
C          10.46874478358885    7.51738746264028   -1.96611968608876
C          10.20432894784386    6.17537997013264   -2.21143190056511
N           9.92727710311758    5.07078867029675   -2.41090575907164
C           9.61544806841168    8.06510241187217   -0.99123508548480
N           8.89608552118981    8.44334308710147   -0.17893077997486
C          15.93038578694072    8.64750718905040   -4.64096111522609
H          10.82386571846436   -5.13755065544029   -2.57965390003738
H          14.37497702916986   -4.38543734699752   -6.48329450441215
H          13.40051669928365   -3.06092735923987   -7.15269092437016
H          12.95342159865544   -4.75296349760096   -7.45385618466017
H          10.41340292569001    0.71868636700569   -5.26640706163420
H           4.56601068970549    1.02841524796708   -1.61780128810835
H           2.93380395687939    2.39175367124010   -0.45393938281493
H           2.36516989300872    4.82672385558778    0.18388151662516
H           2.54196516521952    7.31641688649628    0.60396663302437
H           3.32571213696356    9.77583844073899    0.58467346278389
H           5.29848348724931   11.18088720617558   -0.11391853209348
H          11.67391776128053   11.56158765847881   -1.81747219844181
H          12.19257850937378    5.44521702986510   -3.92081516318805
H          15.91835535721428    9.67011259709561   -4.27053435302718
H          16.05040307695096    8.65818926152611   -5.72410849600661
H          16.78585506920707    8.12189384509026   -4.21738192465892
