103
 SCF done       -175.146704569247          0.000727078927
C           2.81756346239997  -11.88375282404759   -0.09115865716006
O           2.63241194025589  -11.86991795309705   -1.29331603041648
N           2.24578671723396  -12.86119281681910    0.70291487966932
C           1.41297342611657  -13.87498774735373    0.07752664208743
C           2.39821867345004  -12.96821059448543    2.06804776587222
O           1.87289423923806  -13.85346613914698    2.70043151458004
N           3.18300698387403  -12.01088574066606    2.68220686993062
C           3.32815412752567  -12.14607925986236    4.12215024221824
C           3.81669666636573  -10.96473991827064    2.04139530278046
O           4.48232805084930  -10.16870310341712    2.69019366841536
C           3.63995199936283  -10.89209100288760    0.60780679676144
C           4.20360240166130   -9.92849901333503   -0.19887830866208
C           5.02328277807749   -8.82620451492468    0.05620710813770
S           5.60018405504466   -8.31568329340805    1.61802082452439
C           6.42941762047960   -6.96603569811551    0.91804111825020
C           6.25785459216490   -6.90133007782847   -0.46651344837693
C           5.47982177587644   -7.95144393866098   -0.94773260296991
C           5.13922680177584   -8.10867459594018   -2.39700462237215
C           5.99104722170951   -7.19363331098754   -3.27562577892594
C           6.06256946006742   -5.77131201644146   -2.69574857754270
N           4.78030982973974   -5.11532928188471   -2.51326566675697
C           6.79118376921028   -5.81572126353598   -1.34888289687015
C           7.13898300736787   -6.12528501071637    1.82382990171309
C           8.07151554743420   -5.18631869023267    1.55464661181946
C           8.68643774477362   -4.43000749064308    2.60507263528671
C           9.65956557804934   -3.51283819913997    2.47954796114943
C          10.32254773922797   -3.11818806448240    1.19871986590821
C          10.16752407781735   -2.78288885973014    3.69663891926572
N          11.51643207976160   -3.19094708398229    4.04194611181116
C          11.93630486935870   -4.46841581004958    4.01751369141527
C          13.10782579109192   -4.89873924625841    4.56357695424996
C          13.55321427094890   -6.22596756620794    4.47608921971101
C          14.69714871942044   -6.70297177272645    5.06556966910196
C          15.20800693894895   -8.01958545923025    5.01310192735427
C          16.36154078605184   -8.20233672438450    5.71657660444650
C          16.82288741462141   -7.03940568802159    6.37083208033234
S          15.75764090287902   -5.69855611747702    6.05240542619874
C          17.93937270732290   -6.90751459604167    7.18252250802481
C          18.88183850028220   -7.89400552991121    7.52724629919990
C          19.86190195197864   -7.45358940311670    8.37238182644025
C          19.73788380836091   -6.09743458989130    8.73791338148781
S          18.34382729842470   -5.39277235752449    7.96254830339680
C          20.54123745745327   -5.32600618940660    9.56463859543113
C          21.61770775603742   -5.81556332017619   10.28623097951515
C          22.46864791725295   -5.09564250273359   11.10832903160116
C          23.22340806145617   -5.80075357202340   12.16011996608336
O          23.35203974933223   -7.00242211589878   12.29135041446688
C          23.74519389298453   -4.73992543884901   13.04915474279033
C          24.43247323488860   -4.85693079989189   14.22053681770040
C          24.79709388604070   -3.68683736346728   14.92671538487908
C          24.43508176028899   -2.41469820200382   14.39885884278191
C          24.79224400451178   -1.25348068802042   15.11056609444265
C          25.47884958024944   -1.37128742571756   16.28670125347740
C          25.84613952269851   -2.61213702271786   16.82135883251007
C          25.50545542357990   -3.74999636862232   16.14300121218139
F          25.82176012324474   -0.25943797671528   16.96934748990122
C          23.73008013049039   -2.32488123778518   13.17418867643097
C          23.39472216190870   -3.47022363664867   12.50761120284280
C          22.70424132247532   -3.68873212702077   11.23393453446725
C          22.51993157510630   -2.72192539422068   10.26808184136255
C          22.15608118764614   -2.99129081914378    8.93550272167542
N          21.92013085400908   -3.15362458699382    7.82249348347527
C          22.78807313983955   -1.35553491100660   10.46348614387026
N          22.96685823204740   -0.22459002525062   10.56702697798656
H           1.42487613250278  -13.69561793735416   -0.99467152304742
H           0.39599899006886  -13.80629948420816    0.46285458008414
H           1.80737141718619  -14.86446808436724    0.30526502170231
H           3.78749434434804  -13.10604556422706    4.35581274867458
H           2.34761753390164  -12.10409046545790    4.59505737609495
H           3.95486315007699  -11.32945841436635    4.47138576976781
H           3.94189152069550  -10.06465616328347   -1.24468498842354
H           4.07745362397666   -7.87925672823467   -2.54026383377311
H           5.28432785285472   -9.14502482170119   -2.70908196866449
H           5.57330266268384   -7.16695767946374   -4.28429883878645
H           7.00560522372064   -7.59030751130217   -3.34366169643871
H           6.63772691008119   -5.14004663817237   -3.38518865000245
H           4.22726112929234   -5.60471373495690   -1.81834951932415
H           4.25750930528685   -5.10248854364156   -3.38172609361878
H           6.66452091371125   -4.84926914147236   -0.85736487865053
H           7.85840771291349   -5.97865296036805   -1.52417697225919
H           6.90056116559660   -6.31494368573574    2.86438580114359
H           8.38402655874584   -4.99302111948713    0.54293073379145
H           8.30190511799024   -4.63146039884298    3.59821105048908
H          10.20781704561821   -3.87447889461760    0.42917719585905
H          11.38497752275102   -2.94998542713587    1.36670337455643
H           9.89270466234310   -2.18583796988060    0.82987366319996
H           9.49043868247663   -2.95233643473328    4.54539581123681
H          10.19442883198465   -1.70826207220601    3.49104667934881
H          12.06090806768558   -2.54055415935356    4.58967910764406
H          11.28771197196426   -5.15703118400927    3.49300275182420
H          13.73223886163621   -4.19656283573170    5.10020944907845
H          12.95389940835065   -6.92956592127872    3.91283879805534
H          14.70680655522897   -8.79244019217030    4.45702530437943
H          16.88590594115213   -9.13805110020974    5.78637189392090
H          18.82171542718983   -8.89879666378394    7.14861978621920
H          20.66422650253918   -8.07113307227073    8.73267085174449
H          20.26905328656499   -4.28550083520641    9.66681065807885
H          21.77462612491864   -6.88747810930871   10.31608785508201
H          24.69550108983400   -5.82984894278230   14.60822950420821
H          24.52845942492376   -0.28029514137704   14.72666974126089
H          26.38791573508075   -2.64395182011180   17.75342323571562
H          25.77694082223299   -4.71884494343338   16.53509814874735
H          23.46680546934765   -1.34787111701759   12.80115078877366
