126
 SCF done       -219.083720383984          0.000555415051
C          -3.31778653278895   -0.14129129117087    0.52495314793203
O          -2.82379022140146   -0.83757370487866   -0.33209077149056
C          -3.15056902477496    1.32461931992797    0.64990465381312
C          -3.90883311329664    1.80562904338678    1.73017830569736
C          -3.89796058495208    3.16340803207393    2.02161222067450
C          -3.13031060741013    4.00891347511766    1.23636654336896
C          -2.38560156333361    3.50944603845556    0.17490659344640
C          -2.38543539755271    2.15779644326910   -0.13999272955639
Br         -1.34431296470889    4.70752279872895   -0.86847746977991
C          -4.59306744063241    0.68154416582213    2.35987157501169
C          -5.34112821864922    0.75031438884642    3.50449131890330
C          -5.59933603408640    1.94606807084595    4.20903012496047
N          -5.85067432500344    2.88354728118236    4.82158434901241
C          -5.93987691628540   -0.34611514901490    4.16242627895375
N          -6.44638035850939   -1.17969501318313    4.76843934860944
C          -4.26880599073312   -0.51993929029787    1.60299015534954
C          -4.89215888439937   -1.72120889986755    1.74977829834213
C          -4.58763598680877   -2.98351531143917    1.13859203609142
C          -5.64580797036292   -3.89616681822610    0.95935634969838
C          -5.39781830646534   -5.11632416930538    0.38726059377281
C          -4.08807572325467   -5.47422022167095    0.01330382431161
C          -3.03005293132260   -4.60197950486437    0.23030059838340
C          -3.28448966427721   -3.36607298772614    0.78666479189971
C          -4.11847099105883   -6.80902919968500   -0.54037753152992
C          -5.44284703884580   -7.27921703110015   -0.50604212540563
C          -6.36439606748417   -6.23641090537353    0.08139884725923
C          -7.05159468118399   -6.75050332072889    1.36067841140900
C          -6.06040722173692   -7.21624291274663    2.42044557029710
C          -7.43230972118322   -5.79237946270304   -0.93619126576053
C          -6.83190436334476   -5.26798582686561   -2.23509413467889
C          -5.74491163019804   -8.53865002989655   -0.96274854152534
C          -4.72528563457417   -9.36558135039716   -1.46122056098522
C          -3.41287854306520   -8.87385805203848   -1.50112672881003
C          -3.10317174670228   -7.60862205622068   -1.04752142855432
C          -5.08598088405293  -10.69758954258509   -1.89687558938295
C          -4.22082489892582  -11.65444890611250   -2.27632697273885
C          -4.52635547972515  -13.00976869556942   -2.67397571766061
C          -3.46134713504024  -13.88345918313744   -2.94810269626702
F          -2.20223728151942  -13.42504650783954   -2.84617577754020
C          -3.64779691266291  -15.20537993656477   -3.30780776117742
F          -2.56369835219694  -15.96884559642373   -3.51473837200258
C          -4.92285944558174  -15.76436521609128   -3.42113825342474
C          -5.98791637537092  -14.90050202570935   -3.16217203036430
C          -5.80231820342167  -13.57384272956380   -2.80648500312325
F          -6.90313568161922  -12.83460824861055   -2.59116001977934
F          -7.24822789086684  -15.35090980105935   -3.28072815710960
C          -5.11981635266711  -17.17916901815150   -3.76501474681583
C          -6.02974427960126  -17.95058436864922   -3.03606184673576
C          -6.16450464109935  -19.28543329520016   -3.33708850456756
C          -5.40355530495126  -19.86647107851881   -4.36504329826908
C          -4.51795473114158  -19.09855259571617   -5.10558965582818
C          -4.38056099264454  -17.75854134770699   -4.79803010653093
C          -5.71708108453151  -21.27856562229489   -4.42531753372993
C          -6.67851213725864  -21.56534878111172   -3.43885964911480
C          -7.05661335106733  -20.31320797731975   -2.68375272089941
C          -6.75876191032533  -20.44983534631854   -1.17904733056227
C          -5.31383719831918  -20.83960839152127   -0.89201514202020
C          -8.54407644982956  -19.96355774216176   -2.88656166351451
C          -8.92201814070995  -19.80196893108224   -4.35403345519187
C          -7.12816687127924  -22.84700678877946   -3.24929642976574
C          -6.60731275283589  -23.88485111172976   -4.03978711003056
C          -5.65638893695911  -23.57944705733265   -5.02653264837441
C          -5.21213145918405  -22.29003680743074   -5.23016604006165
C          -6.95425761855238  -25.26245856428257   -3.82382109780430
C          -7.94061111846105  -25.73753649397467   -3.02796053277689
C          -8.21617594709526  -27.11570646218152   -2.82719444906149
C          -7.38589231597740  -28.19268324365281   -2.91468365138637
C          -7.98661068522094  -29.54712708853169   -3.04464768682741
O          -9.14469911279741  -29.84863584445584   -2.87534798179302
C          -6.87451290462856  -30.42498871086343   -3.47286469083991
C          -5.67406617539200  -29.69187030185716   -3.47196261683744
C          -5.94577617787687  -28.33908730335776   -2.98511226313683
C          -4.99715940547638  -27.49517286764988   -2.46986756552818
C          -3.61279303187204  -27.76414321892271   -2.49163060716242
N          -2.47603552983857  -27.92360298487161   -2.49607071939499
C          -5.27837664160575  -26.29084062623818   -1.79322047615353
N          -5.43412359167021  -25.31654112671627   -1.20696628291757
C          -4.49676304840888  -30.30218833325612   -3.87933752488410
C          -4.53479548222841  -31.63251920606520   -4.26786542905490
C          -5.72824372342869  -32.34290669840388   -4.24414291414170
C          -6.92070887289974  -31.75133918170155   -3.84938201441887
Br         -5.72728719185770  -34.16713850424092   -4.77468377662679
H          -4.47191334661899    3.57365560818804    2.83595314160051
H          -3.11023872101469    5.06662043273882    1.44959777104272
H          -1.81210348961150    1.76272711343695   -0.96431876057046
H          -5.76553371026042   -1.74317597245354    2.39206374399931
H          -6.64561363736823   -3.61211054321418    1.25519500235957
H          -2.02111628751203   -4.88505611104803   -0.02740125786769
H          -2.46451045833034   -2.69704936591902    0.98525121071668
H          -7.71142452179870   -7.57820884333298    1.09302456162693
H          -7.67039959101717   -5.95002409291249    1.77083019302276
H          -5.44518527582708   -8.02993072585727    2.04239093782105
H          -6.59399487288730   -7.56866219344991    3.29979750133385
H          -5.40534000131155   -6.40143098337875    2.72075511077530
H          -8.04651186436357   -5.01353180276127   -0.47953885056795
H          -8.08079848780631   -6.64324647588531   -1.15448191425777
H          -6.19405271755633   -4.40716445346352   -2.04651965165920
H          -7.62380686418085   -4.96582653435271   -2.91637129675011
H          -6.23511180333383   -6.03645572810419   -2.72148169146195
H          -6.76014022635546   -8.90793468162953   -0.93551436721852
H          -2.62215310273871   -9.49101023381828   -1.89721331004878
H          -2.08629307348388   -7.24836808608275   -1.08547283462066
H          -6.14597499744113  -10.90143835311588   -1.87496474931877
H          -3.16227472408500  -11.43854231526381   -2.27562464830741
H          -6.59604602759853  -17.50508559691681   -2.23275521516900
H          -3.93859634557698  -19.53576190879712   -5.90418739392034
H          -3.69851873883014  -17.14885520894744   -5.37015783265134
H          -7.42511990568039  -21.20457726794759   -0.75728983203384
H          -6.98402798162335  -19.49794656159725   -0.69352596047950
H          -5.08733305209937  -21.81672529687304   -1.31200465228645
H          -5.14782851938951  -20.88392856659496    0.18156608060952
H          -4.62539472653989  -20.11205898307266   -1.31695017931655
H          -8.75920518560492  -19.03459581193378   -2.35518414454205
H          -9.15108466042002  -20.75383040469029   -2.44006627176248
H          -8.35550269999627  -18.99335097589510   -4.81008663912739
H          -9.98069579348517  -19.56999022172733   -4.44230992060084
H          -8.72273215182374  -20.71711389199393   -4.90779033120125
H          -7.84692575670718  -23.06512755031248   -2.47578526676276
H          -5.25994172163637  -24.38147868735924   -5.63315558208067
H          -4.47469140979688  -22.07666200359568   -5.98902088281802
H          -6.36413191596831  -25.97806096967895   -4.38552247776611
H          -8.63356037377179  -25.05084545424832   -2.56291707279513
H          -9.25167094354144  -27.37148339324808   -2.62006404082299
H          -3.56218568172434  -29.76617386692570   -3.91064046917530
H          -3.62938927436041  -32.12266944083272   -4.59130601719465
H          -7.85073524748630  -32.29805073309426   -3.83415587625814
