151
 SCF done       -224.857415870519          0.000731256867
C          -4.92406561184103   -3.52016565596642  -10.36271583058544
O          -4.13746257119839   -4.44747683874824  -10.36719344219354
C          -5.67924823287250   -3.01366065799558  -11.53477983602787
C          -6.48774232369119   -1.93509268030878  -11.13900217405351
C          -7.28074186016778   -1.29524571644874  -12.07875353145131
C          -7.25401987892159   -1.74167778692777  -13.39283292992095
C          -6.44881858391345   -2.80984490149727  -13.75811466116557
C          -5.64522599849611   -3.46678838684190  -12.83595091452020
Br         -6.44329818595092   -3.38570718189690  -15.57113863253972
C          -6.29384734032520   -1.70598753420710   -9.70459398291385
C          -6.93961680407514   -0.73744991724809   -8.96988655433847
C          -7.87267847459995    0.17038229417727   -9.50684155713810
N          -8.64077109199329    0.93976153479304   -9.87902785023070
C          -6.77970275413230   -0.50484883784764   -7.58986075715980
N          -6.71650062275949   -0.24289978135897   -6.47235757221254
C          -5.33125703757389   -2.66590292200813   -9.23632638190492
C          -4.83242997161699   -2.77506686673405   -7.94967313824335
C          -3.88825968611618   -3.70321890734658   -7.53432028624137
C          -3.38770487338842   -3.74126848013801   -6.24398151703914
C          -2.40319192676624   -4.62301487465859   -5.74656709646391
C          -2.06759363496115   -4.40684354806698   -4.44055367176294
C          -2.77755313458108   -3.34602015542605   -3.84361876084845
S          -3.89562488088270   -2.63657971793440   -4.99003353779526
C          -2.65683386330737   -2.84322043785818   -2.55965314718323
C          -1.75561604105601   -3.24090804420372   -1.54361134523786
C          -1.85443749020873   -2.50381675135007   -0.40602678299890
C          -2.84681109299932   -1.48409738195105   -0.44466281284156
S          -3.66082509236770   -1.53249445759467   -2.00631755190632
C          -3.06443619687799   -0.56043061001214    0.53735707643449
C          -4.02489788247968    0.49864645679612    0.56993332839570
C          -3.77500894851949    1.60260853051610    1.41219305004863
C          -4.63791494621474    2.66771304333080    1.41762541631209
C          -5.78099324496518    2.65593835232175    0.59271854114968
C          -6.07047881325515    1.55112232491448   -0.19791407946028
C          -5.19616227393200    0.48784460794235   -0.20583123318195
C          -6.44920378111786    3.92902207044732    0.70569492410466
C          -5.70905761332908    4.74673988350069    1.57685850685828
C          -4.55202447217965    3.97356495023849    2.17686832321983
C          -4.87275826812028    3.78396115140327    3.67839910732845
C          -3.92372953119482    2.87509813799273    4.44829440909668
C          -3.20532088788216    4.68032546140435    1.96804549011610
C          -2.93968959781774    4.99868698776414    0.50095895578823
C          -6.08429076147500    6.04851573528010    1.80168228879910
C          -7.22124783999061    6.55974304370278    1.15992688675732
C          -7.97831313708686    5.71389937562282    0.33798762249707
C          -7.59883095303408    4.41105692558414    0.09442045414284
C          -7.63197149395413    7.94201145556792    1.29325350746127
C          -6.82547615175446    8.96549382219784    1.61304673906941
C          -7.21829805429324   10.35993197510468    1.64906355148121
C          -6.23220724490105   11.34038345161247    1.46731108340350
C          -6.58947660324714   12.66527589303681    1.42017830162939
C          -7.93040248161067   13.04932989780269    1.58759739823268
C          -8.90910536786045   12.09134189608003    1.80713799591056
C          -8.54731446363488   10.75895471803402    1.82872982464687
C          -8.01499738476412   14.48981918587035    1.46914234300655
C          -6.72829333779842   14.99439313513563    1.21584589592745
C          -5.71449297409080   13.87378880139209    1.18230629911319
C          -4.66273658247820   14.03483642050995    2.29540293950477
C          -5.28235254176142   14.12272391107507    3.68479912559691
C          -5.01024675145794   13.79265817832409   -0.18464380025444
C          -5.98641317717490   13.63100370852213   -1.34366434337802
C          -6.52387759063099   16.33877301845939    1.02706623740715
C          -7.61211062987246   17.22137070809245    1.08777543699244
C          -8.88330072306693   16.70392026505340    1.36941653477530
C          -9.09681043185016   15.35273071540249    1.55478998551759
C          -7.48228606421381   18.64514186148602    0.85826772064818
C          -6.41618007298294   19.26858911675357    0.33178859830476
C          -6.30004861827567   20.68467731683420    0.05170970708473
C          -5.21833942547293   21.11892790541125   -0.72981600305638
C          -5.07788323989429   22.45049859123672   -1.04111828429837
C          -6.04148375959404   23.37498098933220   -0.60636002623677
C          -7.10720437395792   22.96503703487939    0.18126026553594
C          -7.22364387611503   21.63049368389388    0.51097306003335
C          -5.70273648596641   24.67957088046499   -1.13226026718764
C          -4.52834714827673   24.56627605405183   -1.89480395864684
C          -4.02535924167823   23.13447188878876   -1.89340313681841
C          -2.63069763167579   23.12897965827791   -1.23368488617054
C          -1.96905781557723   21.76674890338719   -1.07003986887090
C          -4.06037389705995   22.48599934421380   -3.29269384800766
C          -3.12211030918734   23.07919914052970   -4.33579740037078
C          -3.96551203926885   25.68425978040839   -2.46482270180604
C          -4.59351243565022   26.92847077444701   -2.32997195347252
C          -5.77231072248575   27.01643371362238   -1.58373513548825
C          -6.32800325291290   25.90711627373256   -0.97787883327527
C          -4.05786879443710   28.14071487030329   -2.93420914037276
C          -3.06204157771631   28.22114811429518   -3.80963504535827
H          -7.91363532049772   -0.46344548944848  -11.81726849043602
H          -7.86477783211352   -1.25357258860658  -14.13685801440091
H          -5.01587041852197   -4.29738380260775  -13.11575023842713
H          -5.19137188665153   -2.07680893860027   -7.20320000151040
H          -3.50789789031820   -4.42222594058919   -8.24509107315580
H          -1.96885179384615   -5.38396119790064   -6.37014916519925
H          -1.33471266962433   -4.97964917594402   -3.90100409234961
H          -1.05366365570085   -4.04210326210768   -1.68884795980497
H          -1.24346827658052   -2.65072549518302    0.46734922315625
H          -2.38119936320083   -0.60414028318119    1.37806302217978
H          -2.87073035675415    1.61182661220727    2.00297727058223
H          -6.95943618040250    1.52979372512141   -0.80917760031784
H          -5.43085264839411   -0.37854788475059   -0.80283473768130
H          -5.88514562292712    3.37841071419599    3.75529241249688
H          -4.87867292568405    4.77220619152667    4.14387335578657
H          -3.96093171027987    1.86012527156033    4.06188148123551
H          -4.22118178336318    2.84862270139597    5.49449613155304
H          -2.89987930350909    3.23662322815997    4.39944810920651
H          -2.40322094671738    4.04400593886887    2.34444328703287
H          -3.19927544094883    5.60530031369292    2.54859644163500
H          -2.93370272185701    4.08787350994824   -0.09394764989886
H          -1.97426829008560    5.48771791887328    0.39155197270691
H          -3.70781035200073    5.65909053003002    0.10490107157660
H          -5.51794844148829    6.67858338360291    2.47095151120918
H          -8.86526898508861    6.10888790168607   -0.13646958259160
H          -8.18050141533433    3.78143156993869   -0.56171040098247
H          -8.66188758571092    8.14245719653329    1.02877509990393
H          -5.77312509334905    8.77886485840981    1.78639917306846
H          -5.20214606794335   11.03872760194805    1.33647766425508
H          -9.93967503827677   12.38005487713487    1.95190751727882
H          -9.30375922821866   10.00885104149174    2.00399675000054
H          -4.08203290730566   14.93905125359674    2.10026424772862
H          -3.97899184208206   13.18382007367179    2.25608016383307
H          -5.95116752598362   14.97784583200256    3.75243961296551
H          -4.50384210655575   14.23369237242941    4.43634453560159
H          -5.85231865603090   13.22352626686070    3.90829828084920
H          -4.31860926368987   12.94731948821446   -0.17308886646639
H          -4.42265526072872   14.70176837704638   -0.33000130946514
H          -6.56970773040699   12.71993219801040   -1.22985651958815
H          -5.44477169656586   13.57754702602479   -2.28539461681245
H          -6.67249119852320   14.47394204077184   -1.38757430584700
H          -5.53026612197487   16.71676653036651    0.84024482472414
H          -9.72024404378955   17.38588483729293    1.42705931271134
H         -10.08864945852643   14.97738339483658    1.75924671353416
H          -8.36415284577865   19.22138124907010    1.10526096922436
H          -5.55543366167672   18.68243749181153    0.03596892076871
H          -4.51740486356880   20.38351357410294   -1.09718194171142
H          -7.84008942349068   23.67911689219505    0.52703253775034
H          -8.04651663839297   21.31363891665623    1.13306566986846
H          -2.73475292484851   23.58974690568310   -0.24732780270523
H          -1.97554352216831   23.77367442747463   -1.82224996695301
H          -2.53573255044901   21.13887968261630   -0.38856333600344
H          -0.97227146744611   21.89896765499210   -0.65331340906560
H          -1.86980692864429   21.25567735807128   -2.02414111198209
H          -5.08722167771271   22.56088966767692   -3.66139312536553
H          -3.83662372478926   21.42389248767752   -3.17776690799680
H          -3.40485450331121   24.09965889385482   -4.57749601428083
H          -3.18227500172180   22.49036682986113   -5.24927766356463
H          -2.08993015876339   23.06732951208737   -3.99531146858264
H          -3.03289058812813   25.61992312342637   -3.00156956753641
H          -6.25290235861527   27.97894844969888   -1.47631793149092
H          -7.22967076089471   25.99632972711797   -0.39009922137660
H          -4.55805463303510   29.05268605302986   -2.63030848258348
H          -2.53240792263274   27.35765215530441   -4.17436956913490
H          -2.74242380763850   29.16890934207400   -4.20761186914392
