101
 SCF done       -175.244922478314          0.000467223302
C          -1.25583187875321    0.10791249989572   -5.98656477629451
O          -0.99245366134828   -1.07798355276326   -6.03228994061528
C          -0.44373652394390    1.21457723762003   -6.55213232657569
C          -1.07919338527093    2.44153819575532   -6.29210527526209
C          -0.49821876415474    3.61894865219050   -6.73614943908827
C           0.70407907711775    3.55405746294015   -7.42710445003123
C           1.31256670658070    2.33199683644673   -7.66844231170664
C           0.75009135628511    1.13821629936862   -7.23635510060008
Br          2.96116029667689    2.29190525372010   -8.61722050069346
C          -2.31530253701723    2.18252467493499   -5.54819180210388
C          -3.18648914716776    3.14944793088634   -5.09466135981738
C          -2.99353637044972    4.53100224878785   -5.29012654298389
N          -2.88252146458507    5.66836074430175   -5.40912859350131
C          -4.36789918609787    2.92647232947103   -4.35909416572527
N          -5.33876843007480    2.84026951820074   -3.74767432762399
C          -2.42096372903632    0.75973050281704   -5.37558868654510
C          -3.45399390986707    0.10236333266086   -4.73477586630460
C          -3.58908340609039   -1.26066070743723   -4.52305601226198
C          -4.69248933423492   -1.75292441573316   -3.83888670202178
C          -5.01710756496028   -3.07970086064042   -3.49716864916477
C          -6.18879398911598   -3.21043950278162   -2.79508940938631
C          -6.83794745833211   -1.98911612835622   -2.55831960680788
S          -5.92678477802791   -0.66763947602334   -3.24915027500159
C          -8.02281247510749   -1.69170655954646   -1.89638172081581
C          -8.95963357578576   -2.50989799634052   -1.24410862189408
C         -10.01363045743802   -1.81952624887857   -0.70756725489534
C          -9.97123334143579   -0.42407202320551   -0.91725734708517
S          -8.51525777936725   -0.02221627975908   -1.80345428514831
C         -10.89818508679923    0.49234059081047   -0.46545241387690
C         -10.97983149944449    1.87156343664790   -0.65825083699681
S         -12.20755623536265    2.71263774618876    0.28930503194825
C         -11.84695444995904    4.28529782287341   -0.35716745753902
C         -10.82351624362098    4.16336360850865   -1.30317358928395
C         -10.33881159710348    2.82581088766953   -1.46020771710176
N          -9.39533425423368    2.83520576809190   -2.43205575090365
C          -9.25237060350349    4.12130260161731   -2.89762281023169
C          -8.37981783061335    4.45839266937333   -3.94469897313917
N          -7.70992372475352    4.77401230382362   -4.82003620180762
C         -10.11299042171758    4.96443603360130   -2.23076430308824
C         -12.55871873726635    5.43739528547390    0.10432115534077
C         -12.18598250357796    6.73090731683541   -0.30535952351359
C         -12.88293002904298    7.81790649729442    0.15548502841896
C         -13.99215761334567    7.64923987558941    1.00713576886137
C         -14.36332908245374    6.37775888566895    1.42945335723786
C         -13.64450892278498    5.29137528714331    0.98509724644302
C         -14.58624233260657    8.94104838010083    1.25371030716421
C         -13.84993087268097    9.91159343995526    0.55203342630626
C         -12.66625426572745    9.28205477251646   -0.15094222195870
C         -11.38895216896543    9.83387787395888    0.52534765557689
C         -10.07562651903917    9.19202007766117    0.09771201811700
C         -12.67558990801678    9.56358245484551   -1.66105023203215
C         -13.97999744261739    9.13439228301075   -2.32322128195348
C         -14.22230214874246   11.23111773060459    0.59072801862737
C         -15.35051401485736   11.62181379739391    1.33154532599775
C         -16.06962167448248   10.64033470256561    2.03009662440649
C         -15.69925161912034    9.31273052679533    1.99741976919792
C         -15.71015794848196   13.01636823409716    1.33256523780227
C         -16.74341867007343   13.59599244278894    1.97659350725681
C         -17.03386274013164   14.98654977772206    1.92585628751456
S         -16.07584604758953   16.12880966170914    1.00196522143729
C         -17.03610595014073   17.47692893735406    1.45125170269773
C         -18.06175996214924   17.09633706726387    2.27947162831194
C         -18.05227621417968   15.68554936384776    2.54194728907777
N         -19.09753328917322   15.40398253090837    3.36796584443729
C         -19.76727642060104   16.58682269290943    3.63491415488950
C         -20.89721301517130   16.61482382030383    4.46328917791378
N         -21.82335016206286   16.63502411033994    5.14112614753587
C         -19.16543573614238   17.64041249256264    2.98943731950309
H          -0.95440208771659    4.57888284394428   -6.55987036460204
H           1.16935451107530    4.46206678257057   -7.77908493045041
H           1.21996501762389    0.18513374497402   -7.42348605089831
H          -4.25262889942017    0.72259079775995   -4.34651927392941
H          -2.83553018998224   -1.94626655119612   -4.87957379824817
H          -4.38157974990950   -3.90228567086476   -3.77340198311644
H          -6.58784359720741   -4.14851792106592   -2.45149836279959
H          -8.83888153407448   -3.57646070592204   -1.18352228316671
H         -10.82554396600721   -2.27976255536131   -0.17232473607900
H         -11.68179321048704    0.07870123678581    0.15871741589630
H          -8.84036850916070    2.05970433818900   -2.75479398775593
H         -10.20772823284281    6.01243118372602   -2.42702253128167
H         -11.35757872067753    6.85684480694997   -0.97777422166166
H         -15.20715553504152    6.24150159920841    2.08872244000860
H         -13.92481553896319    4.29682908285496    1.30209759996264
H         -11.50270241753358    9.71138354045284    1.60583667773627
H         -11.34490848576979   10.90557635857033    0.31924699753633
H         -10.03901465501140    8.14600821430610    0.38985327352920
H          -9.25047134215095    9.70545993049594    0.58650155222395
H          -9.92598395270787    9.26758950256186   -0.97607485579969
H         -11.84698954750520    9.03274699313634   -2.13129139216525
H         -12.52174290081912   10.63269078437600   -1.82037820782910
H         -14.14819243559024    8.06824302524969   -2.18514478672410
H         -13.94442514402959    9.34159195340855   -3.39020360695019
H         -14.82384662417097    9.67169689739563   -1.89592658093778
H         -13.66213382621993   11.98099837134864    0.05065743458020
H         -16.93626828436302   10.92603180992452    2.60608381097825
H         -16.26873952357041    8.57333695255639    2.54082735899461
H         -15.06747901107230   13.66048002471269    0.74388820481719
H         -17.42123908269232   13.00943416801653    2.58249796415096
H         -16.78772962614866   18.45072374844942    1.08209473734419
H         -19.35975290603033   14.50322502525388    3.72845579098416
H         -19.47653632222957   18.66478593351955    3.02310510328353
