103
 SCF done       -182.714945734458          0.000900124555
C           0.46217378778772   -4.41275780631407   -2.33951749950436
O          -0.15180423350320   -5.38050363731430   -1.93001088726671
C           1.47991684699712   -4.41295923621606   -3.41277493346333
C           1.94188878787668   -3.10068539047275   -3.61834999787163
C           2.91533250795932   -2.86199986875881   -4.57700768762560
C           3.40360254465082   -3.93115421921306   -5.31413121488460
C           2.92596588852315   -5.21655375024732   -5.09867489420701
C           1.95531622417933   -5.48247998264404   -4.14161482480288
Br          3.62073756043583   -6.64636345271702   -6.13884904472952
C           1.22833588447385   -2.20523638019556   -2.70896554049950
C           1.32362367687563   -0.83560430202366   -2.70468956752494
C           2.18605916588608   -0.10340427250058   -3.54612211583330
N           2.86428204191150    0.54733004319262   -4.20558124872175
C           0.54634666330278    0.03223573116167   -1.91071934538354
N          -0.07554210710800    0.79819236305381   -1.32114321009440
C           0.36630712399400   -3.02414444549793   -1.88410048616658
C          -0.35075101500455   -2.56812796525417   -0.80399781872903
C          -1.23766692354201   -3.23430009599245    0.04641552129913
S          -1.77675748913089   -4.88327381648819   -0.12444199276730
C          -2.86754182945476   -4.71277729225709    1.21093448845460
C          -2.81510939593967   -3.43033819698952    1.76736579448137
C          -1.88112827255516   -2.61864558447835    1.13502732268524
C          -1.54879031815467   -1.22283426142519    1.59659576704779
C          -0.11406631811884   -1.08517842654200    1.74591106932389
N           1.01165857066165   -0.99239754676769    1.91892231789214
C          -2.20202369765098   -0.91680419635187    2.95328520386235
C          -3.63654103620794   -1.41976331434159    2.97823331441738
C          -3.66315350148375   -2.95358220677922    2.91975798249209
O          -4.97673607759064   -3.45753526604405    2.75240345628881
C          -5.81247210851889   -3.31464798190062    3.87308275942285
C          -3.65056525703891   -5.80937128171532    1.65057303825370
C          -3.52351287430010   -7.05817679697393    1.14570590910486
N          -4.26974916078444   -8.10953818380950    1.57594680193471
C          -4.10993920760530   -9.40692455301164    1.21524728145485
S          -2.86084557576109   -9.88111676403083    0.11053661423005
C          -3.33532152857997  -11.53984752803728    0.31947156125847
N          -2.62968889924929  -12.51191705437294   -0.39072025173212
O          -2.95265856029147  -13.67719780795851   -0.23394829476874
O          -1.73164788175921  -12.11970966776705   -1.11927218583797
C          -4.38500854022076  -11.70490935083734    1.18124578811017
C          -4.86224952027522  -10.48764006683263    1.71021913200293
C          -5.96591652319930  -10.35622570122498    2.60872166246974
C          -6.53168688030691  -11.39502334082320    3.28255919019779
C          -7.64443663366853  -11.28439416965244    4.13041220231200
C          -8.14734061484693  -12.33416316700447    4.86212974915782
C          -9.28004212126648  -12.33133858193335    5.70976858464576
C          -9.52620056884290  -13.52486580985971    6.32261017767086
C          -8.59554969146818  -14.53464312013102    6.00426133857522
S          -7.40433762473839  -13.92454478206724    4.87440611137938
C          -8.53352896320882  -15.83021652853757    6.48412695107841
C          -9.40896182927844  -16.47317499095829    7.38613774083883
C          -9.05106636972080  -17.75377085023975    7.68017398741056
C          -7.86974559894536  -18.20295655999272    7.03657469546717
S          -7.24444040489720  -16.91244897425645    6.01847784228500
C          -7.30505149914942  -19.44193245954948    7.19951382038685
C          -6.12553592435355  -19.96799611455163    6.63309243507877
C          -5.63444453966141  -21.25212266393942    6.89404632187750
C          -4.42958335198753  -21.43804820954719    6.17477571417430
C          -3.56066677696322  -22.50447435767704    6.09164697162058
C          -2.42753333985755  -22.36085096962073    5.27621084784178
C          -1.38261113522111  -23.22912482551852    4.98945453815727
C          -0.47399400529919  -22.58654551839626    4.09179976959631
C          -0.96000425118359  -21.31870181310065    3.82540847648904
C          -2.18141568242353  -21.13072521720060    4.54376717174397
C          -3.04144580173486  -20.06903990734999    4.62002026564709
C          -4.18149223327614  -20.20901223307191    5.44161913230679
C          -5.20972521526121  -19.33243548053471    5.72448446957362
C           0.74208058870341  -23.13964695803018    3.54583208456415
C           1.22060254677286  -24.35547175069252    3.79552155606846
H           3.30145726597349   -1.87283616279407   -4.75979390856965
H           4.16210267227463   -3.76313277972260   -6.06320197412226
H           1.58198395166891   -6.47983304058697   -3.96799159906062
H          -0.20972687017908   -1.52366545254269   -0.56216977443462
H          -1.88478091076225   -0.49421963621694    0.84617195321273
H          -2.17130582236216    0.15864774655018    3.13363991862759
H          -1.63274679786779   -1.40750094930258    3.74760816078813
H          -4.19160760394286   -1.03179694376005    2.12140400336208
H          -4.12603520657044   -1.07666699937778    3.89064731854895
H          -3.24373889749519   -3.35563173277416    3.86317898936750
H          -6.71401672633567   -3.88392818366589    3.65266866161123
H          -6.08984064123804   -2.27155071992798    4.05329056807217
H          -5.33772912191607   -3.71684646930959    4.77722949094625
H          -4.37289356126336   -5.61237095941343    2.42832713919523
H          -2.79835249446273   -7.28099149960282    0.37574497484155
H          -4.98064084820819   -7.91714474330166    2.27234928296571
H          -4.79635974923517  -12.67339778551374    1.39696574025112
H          -6.37848113188342   -9.36573048844398    2.75536486306584
H          -6.10232706083520  -12.38269862804566    3.18492665762615
H          -8.14305637724116  -10.32807949782829    4.21848153850241
H          -9.87978239429090  -11.44741277229439    5.83853547665350
H         -10.34482115345496  -13.69978765909891    6.99781552346274
H         -10.27309965464766  -15.97738530370046    7.79054074418967
H          -9.59715413490912  -18.39620178119805    8.34882753398971
H          -7.83616330699006  -20.10932537286929    7.86869524412220
H          -6.09456307415928  -21.97903444934071    7.53812897512985
H          -3.73748365355121  -23.42272466168785    6.63397393120032
H          -1.27276673824272  -24.22528809924417    5.37718353251496
H          -0.50334137665598  -20.58653647070579    3.18486658611828
H          -2.86771567331337  -19.15024619837570    4.07822629861215
H          -5.30870833674443  -18.33835558253757    5.33104594985771
H           1.28449040155915  -22.47734564992409    2.88265205841777
H           0.71913637525082  -25.04875981538962    4.44903378981240
H           2.13934715238090  -24.69981238760692    3.35347046159841
