114
 SCF done       -192.105685689711          0.000721534578
C          -4.36218606254772   -7.43657995936876   -4.79718891630431
O          -4.50570964852043   -7.85593508770932   -3.65897930767989
C          -3.13690559487375   -7.59088340780812   -5.61708412729933
C          -3.28783154805762   -6.88391812605068   -6.82078739917357
C          -2.25864701550432   -6.88513245773273   -7.74720837663813
C          -1.10088149648450   -7.59853233473762   -7.45993087678239
C          -0.98156570755437   -8.29311330452089   -6.26772557709009
C          -1.99449844521661   -8.30008384067337   -5.31837642303774
Br          0.61436702547245   -9.26717434736434   -5.91576555314867
C          -4.61897363292920   -6.26870952172148   -6.82673467071107
C          -5.15611892386434   -5.55175759665142   -7.87220911654874
C          -4.45896891983239   -5.24411487418290   -9.05459786792903
N          -3.93251513896550   -4.96106482972164  -10.03622808977010
C          -6.47427851645802   -5.05787913662040   -7.90800980249673
N          -7.54216902586980   -4.64693718644800   -8.01785518376675
C          -5.27333778912498   -6.62318515724563   -5.60050777460338
C          -6.48392249110275   -6.10661616349745   -5.13682407929763
C          -7.23382836838179   -6.62329225783776   -4.09744453655020
S          -8.29940337992244   -5.57252939044714   -3.17537540121098
C          -8.54816853335807   -6.76491218026971   -1.93374045714619
C          -8.01857577629304   -8.02456039923471   -2.35312583859092
C          -7.28377065758802   -7.93671518123470   -3.56306645050280
C          -6.77472472354207   -9.09494472159834   -4.16255769112916
C          -6.93652389643489  -10.29749476150793   -3.52538599838026
F          -6.43669141438726  -11.41657828676827   -4.08091644569123
C          -7.65515505162107  -10.38740475390109   -2.32547562660781
F          -7.83619381520544  -11.59058646790731   -1.75156811815789
C          -8.22483834715772   -9.27510110962387   -1.75731891649827
C          -9.06971562658572   -6.41439765295834   -0.69192780451099
C          -8.75328373101772   -7.14388890011889    0.44187902507620
C          -9.11942533582991   -6.93942642824780    1.75795001653991
C          -8.51254592852855   -7.69817784443638    2.76216310605632
C          -8.66268085750182   -7.65805960570936    4.15502066429663
C          -7.82820558643179   -8.51644694444532    4.83991642681532
C          -6.98883984006045   -9.26315818753220    4.00909436047368
S          -7.30243044254662   -8.88633198344138    2.33580304262671
C          -5.93221421344473  -10.13852339118417    4.27049393320009
C          -5.29573507452402  -10.50267112355080    5.46503927662917
C          -4.15882136587669  -11.24931458354872    5.27177957928288
C          -3.84645489387023  -11.48488846251975    3.92055508484912
S          -5.10925037409130  -10.83073162375418    2.90290629920297
C          -2.76119409794689  -12.16823346944770    3.39402545342512
C          -2.40875650855536  -12.21860175658557    2.04329968799020
S          -1.65621381176978  -13.68247999920284    1.44785122863532
C          -1.85905578899894  -13.22167706746762   -0.19798931643396
C          -2.47015885302854  -11.96448142832377   -0.31257799323773
C          -2.66349632287789  -11.33950257097538    0.96273585957680
C          -2.94504524872214   -9.95056761438885    1.02421526411267
C          -2.74571644033011   -9.18810470832585    2.25112097932175
C          -3.31874690064117   -8.02610323205479    2.54169123791581
C          -3.30495907873977   -9.32916269117816   -0.15621463483500
C          -3.39347499488790  -10.02597515327560   -1.36283429589238
C          -2.95527779520011  -11.32456734721107   -1.48708448878210
C          -3.06301292994849  -12.01128113047687   -2.81091767712199
C          -1.29482307607739  -14.07592590825469   -1.22151129781654
C          -0.48845819557069  -13.51824420724855   -2.22444445411195
C           0.07306124119685  -14.34340347473742   -3.16632338173304
C          -0.14549595556465  -15.73195796669623   -3.12609395549874
C          -0.91838172025114  -16.29196920174671   -2.11938675320898
C          -1.47816401251194  -15.46119857843788   -1.16869756602027
C           0.56186364624203  -16.33882584121155   -4.23469494005526
C           1.21593843320573  -15.32603939073613   -4.95478588763571
C           0.95953577946567  -13.97474596412832   -4.33154992641624
C           0.23128643765335  -13.03036621530992   -5.30526462181771
C          -1.05590217187000  -13.62522512288448   -5.86314280185965
C           2.26706846310976  -13.31249660605633   -3.85968823116545
C           3.04468050477166  -14.17492215807651   -2.87291381064002
C           1.96236167522880  -15.63277737069868   -6.06714108884138
C           2.07976457608316  -16.96546409317511   -6.48230858011110
C           1.41952115346248  -17.96169239470427   -5.75585582452198
C           0.66357585134355  -17.66139373518658   -4.63986541513473
C           2.88539847432411  -17.25518042290734   -7.66068418590971
C           3.23441756792382  -18.45439772763222   -8.11250743883912
H          -2.33120906313796   -6.34890841069173   -8.67895678205857
H          -0.28954520570816   -7.61027789979364   -8.17182627313400
H          -1.90232208423482   -8.83617782501647   -4.38623027446437
H          -6.83151837655710   -5.17530084305223   -5.56671461256757
H          -6.29029252543030   -9.06239429922081   -5.12390715915515
H          -8.85184487132938   -9.40050217514429   -0.89079180074547
H          -9.61360493102920   -5.48429004118605   -0.60516130402222
H          -8.03343343667436   -7.93768780653772    0.29095092148784
H          -9.84803399842206   -6.19163646242205    2.03463038988615
H          -9.36136211441193   -6.99368052886556    4.63249437217627
H          -7.80420303830556   -8.60489024860723    5.91175720918490
H          -5.66192148856435  -10.19539822863156    6.42828977887153
H          -3.52256080876068  -11.59553442390771    6.06754089639934
H          -2.20063166690989  -12.79852241478990    4.07432983399017
H          -2.04219381308085   -9.62363977490530    2.95068312394120
H          -4.05696393516319   -7.57301297303308    1.90207886038881
H          -3.08633118263721   -7.49780652946634    3.45032094140522
H          -3.52448193226845   -8.27337535697166   -0.15585650847689
H          -3.77939793121402   -9.50452071469744   -2.22667475132676
H          -2.18814094430712  -11.82216998214651   -3.43151970430607
H          -3.93003260828127  -11.62888740404500   -3.34462290682732
H          -3.16932445229601  -13.08644061803561   -2.69419161742855
H          -0.29335467123118  -12.45662698817220   -2.22035273715937
H          -1.08115026894743  -17.35807312572180   -2.07528939817098
H          -2.08925122843673  -15.87609493634496   -0.37987433849234
H           0.90518545906289  -12.78664352516773   -6.12815375286536
H           0.00988962356000  -12.09927876601664   -4.78088388437098
H          -0.84659688325721  -14.52758829235181   -6.43309917942005
H          -1.54254185924446  -12.90903283179345   -6.52121445127172
H          -1.74652154534930  -13.88028857510098   -5.06225573145484
H           2.02686255586948  -12.35287186992017   -3.39780592843842
H           2.88855813037396  -13.11077322991415   -4.73383535423415
H           2.45655910741093  -14.36294816898684   -1.97715399662920
H           3.96409625222288  -13.67256319833976   -2.58183768036596
H           3.30254010160501  -15.13262662188701   -3.31995372754745
H           2.46493411037524  -14.85484929394493   -6.62452131044668
H           1.49359548760449  -18.98878964002201   -6.07744432362926
H           0.15893892781888  -18.44547083982643   -4.09486605629615
H           3.22997688749943  -16.37728629570272   -8.19411395677245
H           2.94313087711566  -19.36973731204263   -7.62695000861704
H           3.83993960999028  -18.56397341398625   -8.99568233702508
