106
 SCF done       -184.855359567783          0.000456384165
C          -6.54969242237557   -0.96557497947154   -2.09345545183212
O          -5.36470114292540   -1.07728143639183   -1.84230147915109
C          -7.19295972960093    0.20509964865657   -2.73448273573947
C          -8.55411185708711   -0.06692367235301   -2.95030735866850
C          -9.35538939463209    0.88575452945618   -3.56048934524531
C          -8.78586770717717    2.09240295895497   -3.94199318841508
C          -7.43933701560208    2.33893825161588   -3.71661129676052
C          -6.61552302372340    1.39832785901685   -3.11144021006634
Br         -6.70300418760495    4.00779486031824   -4.25103123100285
C          -8.84434393030714   -1.40418214936609   -2.44013194487719
C         -10.09236046553803   -1.97522424129279   -2.38781519644363
C         -11.26105545815401   -1.37753678430756   -2.89449354095910
N         -12.25609933109550   -0.96547112544175   -3.29547471817015
C         -10.40569278883296   -3.22290973979239   -1.81733194616071
N         -10.77846723436667   -4.21873793384772   -1.37917428470088
C          -7.61436195557021   -1.96423887134305   -1.93191350658667
C          -7.45045485658429   -3.29153485676828   -1.60048333481072
C          -6.41386517069435   -3.97476683531710   -0.94772044158458
S          -6.26078739907055   -5.66862022396723   -1.36198463181154
C          -4.98276592381629   -5.90091580936398   -0.20391577487249
C          -4.76198935856902   -4.72704193856332    0.52833857762521
C          -5.53428274415748   -3.64658683425357    0.09684133019616
C          -5.51503482239625   -2.31999401411285    0.77800841515791
C          -4.46750328775720   -2.23066089209299    1.88776699558950
C          -4.35100858783756   -3.53797567015852    2.68302211605345
N          -5.56790584399468   -3.96725064215633    3.34963349560849
C          -3.88547037375470   -4.65082854602307    1.73826081759476
C          -4.40474726640425   -7.18459328344249   -0.15458829429310
C          -3.27856876167751   -7.58682509697421    0.51482956049667
C          -2.78592973977639   -8.90002866973274    0.59222642248877
C          -3.28396099906042  -10.06521157590807    0.04662587176182
C          -2.76202034220845  -11.36184511973761    0.29084358247135
C          -3.44537932141800  -12.37731467201892   -0.30995573660335
C          -4.53692047170902  -11.93908638826636   -1.08798644393651
S          -4.66116456199339  -10.19462644983508   -1.02394165667806
C          -5.47101049343612  -12.65881243081208   -1.80642960761833
C          -5.67878867371619  -14.05711629559731   -1.87642136873153
C          -6.77293960496800  -14.41794290746831   -2.59910156135667
C          -7.48564069754991  -13.32301569255059   -3.16406143078402
S          -6.67866296794367  -11.81292585606614   -2.74381222024870
C          -8.67130515968278  -13.32299887030218   -3.83451269847357
C          -9.23344223751941  -12.10812335199079   -4.34821642994552
S         -10.79552621319593  -11.56992624659146   -3.80076418496227
C         -10.59898398276079  -10.04264769616608   -4.61716941827465
C          -9.40937031599186  -10.00873762425990   -5.33487158004672
C          -8.63685236696370  -11.16890765088227   -5.17150610809801
C          -7.37196441281286  -11.38396391479983   -5.94410535364907
C          -6.75678572415003  -10.04349239987620   -6.33778292446182
C          -7.78529528498835   -9.15010068484023   -7.05277156476434
N          -8.34762297544431   -9.71185096691497   -8.26900740624913
C          -8.93100087817459   -8.81263806613008   -6.09366831431610
C         -11.48232607821850   -8.96106305236448   -4.41965325932426
C         -12.48232857366113   -8.92153324443199   -3.49793071481302
C         -13.30721384911736   -7.80597748940328   -3.23782404972667
C         -13.14956865038172   -6.48636999312794   -3.56091675015038
C         -14.34740847983464   -5.60436092826018   -3.50208636942529
O         -15.41467909941398   -5.86410702473668   -2.99717086152996
C         -13.97063831786859   -4.38234810864075   -4.24704171062036
C         -12.61797668110123   -4.46851862846654   -4.62039750527795
C         -12.04870551154410   -5.68894673326476   -4.04788885664243
C         -10.70821079170668   -5.86170467104498   -3.81042669183496
C          -9.72797768143044   -4.93052971046775   -4.19949229273580
N          -8.88013975589250   -4.20467983365718   -4.47520810992129
C         -10.13468073773207   -6.91277984326649   -3.06828814470610
N          -9.58046651988797   -7.72729291842933   -2.47903813882530
C         -12.05765759685724   -3.47548966327297   -5.40838937920776
C         -12.84672472880105   -2.40047854634941   -5.78798121127243
C         -14.16882561995153   -2.31582312402761   -5.37510844736950
C         -14.75800024467297   -3.30766511881687   -4.60290028455398
Br        -15.19823332249775   -0.81782464716780   -5.90036689371617
H         -10.40220707572927    0.71142041665754   -3.74793152661932
H          -9.39414552091844    2.84538321629043   -4.41920961502393
H          -5.56701437889671    1.58568449656883   -2.93890015452289
H          -8.22977034615687   -3.95361030189178   -1.96341132982551
H          -6.51792821117266   -2.10715218900462    1.16439470837604
H          -5.29111249308744   -1.55096534796590    0.03596677242307
H          -4.72144316643796   -1.40533895964582    2.55668376447484
H          -3.49309548501042   -2.01265481654739    1.44763409471666
H          -3.59595186855210   -3.40744922186821    3.46872986670375
H          -6.29431378242578   -4.16386797693241    2.66951959921434
H          -5.90824185977921   -3.24273080547272    3.97172210783680
H          -3.92987669990090   -5.59722827016148    2.27908947324179
H          -2.84992857699796   -4.46278359111060    1.44212479104037
H          -4.93641578035401   -7.91376781115926   -0.74840016082129
H          -2.69698023824068   -6.84933982258088    1.04601380162132
H          -1.89793245511354   -9.03401101668419    1.19818687626074
H          -1.90193510862092  -11.50465814062187    0.92152049851781
H          -3.19135576582825  -13.41819835296978   -0.21823795943275
H          -5.03247667089305  -14.74994053539243   -1.36723467102823
H          -7.10290406801308  -15.43125248832513   -2.74476505607036
H          -9.25711276171126  -14.23053230435171   -3.87693446331241
H          -7.61019395367275  -11.96193091594485   -6.84547018539332
H          -6.65431912286632  -11.97288728745265   -5.37451486157944
H          -5.89662872296826  -10.21280217552800   -6.98956153939167
H          -6.40826060676771   -9.52825293019799   -5.44137558145313
H          -7.29152297849715   -8.21488429706442   -7.34501892879703
H          -8.88621652368937  -10.54543771763669   -8.06063207301891
H          -7.61326509331081   -9.96257226474059   -8.92129021188482
H          -9.74468284584681   -8.37219483713079   -6.67344471113538
H          -8.58630394109676   -8.06780922021162   -5.36960952851690
H         -11.31416005666865   -8.10197571269669   -5.05433200210719
H         -12.69639005289296   -9.82205296589956   -2.93620146446428
H         -14.25088525105690   -8.01962136956928   -2.74400713489573
H         -11.03357885935890   -3.52703964633784   -5.74265124511800
H         -12.42920761738451   -1.61826655240148   -6.40306819662955
H         -15.78919035162967   -3.24976400556084   -4.29057534470397
