88
 SCF done       -171.982480581509          0.000536067427
C          -5.08518507192657    1.53114816182211    0.43234719585891
O          -4.94579628459518    0.92891118818511    1.47699091900664
C          -5.17417922791004    3.00497102350703    0.30909013413469
C          -5.37602845095957    3.35847454253354   -1.03406763942937
C          -5.47372699382353    4.69865376698509   -1.37984255337692
C          -5.37100725249597    5.65583171503826   -0.38127494437124
C          -5.17721627844766    5.28039273715788    0.94077756911210
C          -5.07481540778279    3.94692619326670    1.31148057850402
Br         -5.04388258757330    6.62865577183264    2.27394326152546
C          -5.44370966981986    2.13431497199353   -1.83053028831220
C          -5.75672597206068    2.09204437630476   -3.16559586701376
C          -5.99766241462856    3.23618573736775   -3.95475606790575
N          -6.20197238341079    4.12219218078708   -4.65624534001206
C          -5.92717663009112    0.93183716514348   -3.95091424028303
N          -6.11182210658858    0.05495369612575   -4.66976279556254
C          -5.18974017111506    1.01242038902346   -0.94495855603008
C          -4.98696359482274   -0.27128171216918   -1.39563522004982
C          -4.74408365932984   -1.47426420437603   -0.71918526700369
S          -4.38894961556126   -2.87775596016327   -1.75117083715239
C          -4.22737458857357   -3.87112168424136   -0.36892302724953
N          -3.93395870348112   -5.15580939295842   -0.25132327921907
C          -3.91259487600127   -5.52358013755566    1.00164177181062
S          -4.27919796366868   -4.22673237808477    2.17191986573714
C          -4.45231641715059   -3.14966384490668    0.82974386247351
C          -4.73976659715095   -1.81225353303351    0.63145806725293
C          -3.61575761123510   -6.82542488245862    1.46703962488582
C          -3.27658051122230   -7.89044418968263    0.60202735811865
C          -2.94883199742618   -9.20486009151268    1.10980494989181
N          -2.62641460699945  -10.17238256463389    0.26514049184069
C          -2.60602233940177   -9.94114261612751   -1.04052052263481
C          -2.93483302772638   -8.64594235919827   -1.53199103173417
N          -3.25445910143699   -7.66967732903100   -0.72011192088034
C          -2.90787195178171   -8.42636019193434   -2.93367322272791
N          -2.85582324605189   -8.33301086852726   -4.07435972541082
C          -2.25812804553919  -10.96605839293285   -1.93871033479582
N          -1.97915576647267  -11.74750775834907   -2.73322399020606
C          -2.95599762726002   -9.51297454771073    2.50872766536370
C          -3.32267431255073   -8.42515818319023    3.36135664640602
C          -3.63641566695606   -7.12012797332725    2.85189347279303
N          -3.93647639172956   -6.26529436033682    3.82248819239735
S          -3.83739920873168   -7.02582790900721    5.24557257606077
N          -3.40569823397738   -8.47640893793025    4.68380024002082
C          -2.64122812485791  -10.73078115501688    3.09551195991495
C          -2.22095755878550  -11.95287557659513    2.57409947006170
C          -1.93407899721630  -13.05700540443772    3.40009623332393
C          -1.50851991676919  -14.17703486694669    2.73115025365577
C          -1.44958371560763  -13.98622585449018    1.34785666103815
S          -1.94920062488634  -12.36617370601130    0.90702855601257
C          -1.05442349641275  -14.88880392580245    0.35620633737887
C          -0.61367842143923  -16.21584476744951    0.49357410576168
C          -0.29360347650775  -16.80966414284534   -0.69800668274542
C          -0.46934980530563  -15.97939921339285   -1.82481710733270
S          -1.06065907815620  -14.41057712615222   -1.31086503707450
C          -0.20923586474320  -16.33451120814895   -3.13483281744526
C          -0.36624133898750  -15.56063968355459   -4.29037459994888
C          -0.85377659163353  -14.23394147424904   -4.41882026509631
C          -0.82865758973461  -13.88174490597137   -5.77021335133857
C          -1.20477289526866  -12.70039192047830   -6.40476663369181
C          -1.06392490454736  -12.64610687472645   -7.78447199967627
C          -1.34574619462998  -11.62923303679032   -8.70771183416497
C          -1.01944504713201  -12.08423783844896  -10.00673425629493
C          -0.53059242090782  -13.38952487284586   -9.89930071752552
C          -0.54224055843292  -13.77823311361469   -8.53721307042104
C          -0.16969002185784  -14.94894707756666   -7.91406488718843
C          -0.31007473417974  -15.01542214012086   -6.51881091505418
C          -0.03794963323093  -16.02336070983938   -5.60375990951086
C          -1.15436842906224  -11.35884800305999  -11.24751886971067
C          -1.63163835952885  -10.12266531015470  -11.36727557612465
H          -5.62107631657802    5.01400122438617   -2.39930461663248
H          -5.44162949732632    6.70271421207774   -0.63388844100089
H          -4.92224423033544    3.64790166831630    2.33693143516474
H          -4.98692753649800   -0.39278292791828   -2.47263061346861
H          -4.93321802385494   -1.09900558206634    1.41083220809163
H          -2.72937552891000  -10.71857215954485    4.17668921366070
H          -2.04394718696899  -13.00002023908886    4.46893178494420
H          -1.24579984574023  -15.10298913527327    3.21144298717384
H          -0.53964415332323  -16.69973281141565    1.45063083866220
H           0.06317285750322  -17.82050291064961   -0.79185889415371
H           0.16763805573414  -17.34065157053744   -3.27971847838908
H          -1.19600476434646  -13.58644988862928   -3.63546225536052
H          -1.58935500933999  -11.86636216396472   -5.83619546164096
H          -1.74434348720598  -10.66372266419416   -8.45840449199513
H          -0.19902899562801  -14.00259922346217  -10.71794527662388
H           0.21700914155449  -15.78953097745630   -8.47310363348015
H           0.35770994113557  -16.99750906696801   -5.82922895051668
H          -0.83235915520583  -11.89798344395574  -12.12970041141286
H          -1.96465357396094   -9.55038268239217  -10.51880639391206
H          -1.70600232476378   -9.63995337031613  -12.32601336944133
