129
 SCF done       -204.757546736902          0.000685177451
C           0.09142044103882   -4.62275349884358    6.28485135706727
O          -0.42751750944434   -5.67807880255153    5.99880826379713
C           0.51297660519898   -4.20665265114204    7.64326025673671
C           1.07928320436995   -2.92157636892449    7.59968838361237
C           1.55530293128136   -2.34176228985805    8.76772322029245
C           1.45438930008899   -3.05169280028740    9.95395663938828
C           0.88636777219442   -4.31937414706560    9.97427871976968
C           0.40718852205158   -4.92109322079716    8.81879864616071
Br          0.76655944596675   -5.25195310931495   11.62554663362676
C           1.04190145183789   -2.44243840219091    6.22305180466505
C           1.36103693883811   -1.17720007535027    5.80936409332085
C           1.84263657725742   -0.16497403728064    6.66649525722385
N           2.23844088454269    0.69550639502261    7.31462255574491
C           1.21788071433720   -0.69602559780615    4.48962992254589
N           1.10607582530387   -0.22226218962906    3.44992972953097
C           0.51409428920326   -3.51377646222071    5.39156566562652
C           0.62562660032034   -3.56386309664498    4.03488820230667
C           0.08089001505783   -4.52771469770874    3.12416527540638
C          -1.14474715722974   -5.17634175502953    3.35020970149507
C          -1.60661418656287   -6.07441822209873    2.42236297911402
C          -0.86704782124623   -6.35741379838409    1.25905106270162
C           0.33490661424837   -5.70295948859946    1.01330846768775
C           0.78497063383227   -4.78233837885091    1.93295858248909
C          -1.59503602911556   -7.32889391623225    0.47636078824599
C          -2.79093226144489   -7.63868318671469    1.14795594878977
C          -2.88500464819754   -6.87739351066721    2.44856728224997
C          -2.91039635437762   -7.83449200286761    3.65641098061422
C          -1.70158913716485   -8.76085355912255    3.70419605654113
C          -4.12496919633017   -5.96593064202396    2.48460728670511
C          -4.17435432835542   -4.98800114459370    1.31674366036430
C          -3.68220303786400   -8.53126697656056    0.60591987786301
C          -3.39951681001822   -9.14421637500776   -0.62483424578987
C          -2.19619355298680   -8.83220561894131   -1.27478921558544
C          -1.29784448658562   -7.93492815104533   -0.73702344052336
C          -4.34395372397649  -10.10682415708829   -1.14401073242610
C          -4.19617818685994  -10.81631767282178   -2.27389459306732
N          -5.08822752084393  -11.77733272586969   -2.68165569631904
C          -4.89473443778926  -12.67956805083241   -3.68219582840303
S          -6.31172835225202  -13.33566368495488   -4.45416141526281
C          -5.30038848440787  -14.20338495798905   -5.56569810208132
N          -5.91684588661069  -15.01622725634980   -6.51325167049701
O          -5.20309543604595  -15.61666354489305   -7.29920054760892
O          -7.13778050405563  -15.06619320601111   -6.48769894227275
C          -3.96487629377700  -13.98859509415377   -5.34520123592447
C          -3.70416112298618  -13.14306996171964   -4.25264646323353
C          -2.34244741218882  -12.90597440324924   -3.80269771304267
C          -1.96654222182306  -12.72599907891420   -2.52930167026367
C          -0.62201993322190  -12.44348125939727   -2.06538332502796
C           0.51910080059007  -12.76323728852388   -2.81200361329079
C           1.76078922032076  -12.45691981815357   -2.31116356288702
C           1.89692675663142  -11.80955292604185   -1.07113559196668
C           0.77359537152951  -11.47787228697934   -0.32912057493551
C          -0.47114422275580  -11.81114495686335   -0.82554314809122
C           3.30865006238494  -11.63908802682286   -0.79360891309691
C           4.04250634638529  -12.19016999262476   -1.85613944580555
C           3.11621805331977  -12.73903788856766   -2.91644386623361
C           3.33274772204870  -14.24876781722469   -3.12665356678752
C           3.16557985956412  -15.05333477536753   -1.84326974283626
C           3.29853587116522  -12.00020416082332   -4.25546984873803
C           3.10159220945127  -10.49424448083945   -4.13057082736667
C           5.41633264490985  -12.19037197964152   -1.83464187107075
C           6.09087444515107  -11.63397877131283   -0.74041565428174
C           5.34686783079756  -11.07621715897797    0.30461575895467
C           3.96577821754991  -11.07334851402964    0.28829148792062
C           7.54299721566368  -11.64925252794450   -0.68446110266633
C           8.35789041042976  -10.79004814399738    0.03236117676196
C           9.72069160364206  -11.16672270591695   -0.17412145986159
C          10.89692990977415  -10.65030580477678    0.31164508706143
C          12.09377985653287  -11.27780935943526   -0.07706348751095
C          13.42058486641066  -11.01116926610150    0.24222014103869
C          14.25814404144227  -11.96120442364401   -0.41618750733761
C          13.44483318784025  -12.81282469431437   -1.14427741667042
C          12.08228902153881  -12.42312558029713   -0.95910949927866
C          10.90671562844839  -12.93769280452007   -1.44658180221197
C           9.70948776011530  -12.31100917631076   -1.05575011736300
C           8.38118690182247  -12.58611920497319   -1.35944174011842
C          15.69767147569537  -12.04376610910137   -0.34788762824728
C          16.48790332687172  -11.24573197356914    0.36456574714123
H           2.00503698802077   -1.36250647947474    8.77174461307588
H           1.82146912297089   -2.61753995537423   10.87121219624186
H          -0.03144517043423   -5.90688343979702    8.82839513485491
H           1.24494325777794   -2.80665100998576    3.56633319256069
H          -1.72599148865612   -4.93997820152559    4.22544538884977
H           0.89841254486878   -5.90302630924855    0.11454668210527
H           1.71390140073230   -4.25888935923704    1.75751481843125
H          -3.82556916159539   -8.42892286886905    3.61029110975399
H          -2.93771921992997   -7.24035769820582    4.57115294347527
H          -1.62561919968390   -9.34880723570994    2.79149169355940
H          -1.78955126349670   -9.44174898928445    4.54733112950613
H          -0.78711748229095   -8.18541724498900    3.82537229801114
H          -4.12215783760846   -5.41036501665023    3.42435711851756
H          -5.01934413212695   -6.59235822100003    2.47089340885376
H          -3.30509134741210   -4.33403425818117    1.32471502064578
H          -5.06798375828184   -4.37183881305839    1.38249109377360
H          -4.19287482100531   -5.52127951962090    0.36867180443978
H          -4.60282258811088   -8.77118574679429    1.11884879723108
H          -1.95796549444083   -9.30402774089075   -2.21474165171434
H          -0.37618444973170   -7.71281107598524   -1.25352366480026
H          -5.22159283785975  -10.28137695064610   -0.53306902918260
H          -3.35402567729237  -10.68435777848459   -2.93140862430876
H          -5.99390258992720  -11.78760457209772   -2.23037898464610
H          -3.20264827012944  -14.46205864380450   -5.93774979403207
H          -1.60217248189912  -12.93336256448879   -4.59044232506313
H          -2.71815509608003  -12.73411945140495   -1.75036566453339
H           0.41963812738640  -13.27368100709288   -3.75813205690023
H           0.86593109537892  -10.97845579761957    0.62390489561563
H          -1.35586353021617  -11.56444545097627   -0.25515112268054
H           4.33759810529480  -14.40562115180352   -3.52456987015025
H           2.61999036210861  -14.60543298188600   -3.87341742815321
H           3.87927139341222  -14.72686011426196   -1.09003849503919
H           3.33000252077465  -16.11039971048701   -2.03940692620949
H           2.16267393592528  -14.92951125708086   -1.44052656863177
H           2.58375671162256  -12.40136943488172   -4.97744679533256
H           4.30302958474515  -12.20306261822869   -4.63282803373007
H           2.10013141730399  -10.26668294151334   -3.77135446765049
H           3.23860627511233  -10.01670351514205   -5.09818099947519
H           3.82035820125845  -10.07092695791305   -3.43242022283371
H           5.97845440618845  -12.60360262267713   -2.65878846262395
H           5.86775659918877  -10.65950750001439    1.15351453714313
H           3.40961193166279  -10.64561415117538    1.10958322181469
H           8.04034604092434   -9.95636707837896    0.63113270512326
H          10.91311006665085   -9.79615207872369    0.97460708426401
H          13.76277891687146  -10.21771684771165    0.88138020023556
H          13.77427279901245  -13.63741601548787   -1.75041754095874
H          10.89029155683209  -13.79390760151774   -2.10687646407214
H           8.03721073862513  -13.39617399817128   -1.97731634190704
H          16.13549582098504  -12.83846419434223   -0.93969142121209
H          16.10090707268894  -10.44297318984482    0.96847125685177
H          17.55710177629712  -11.36841318709232    0.36719073598476
