117
 SCF done       -218.016183001997          0.000921961758
C          -1.49085615501883    0.57939660327929   -3.61617031130578
O          -1.83544271734673   -0.23932530078962   -4.43676308087871
C          -1.30329990239209    2.02788223437552   -3.86167899770469
C          -0.91943046054269    2.67258166102596   -2.67367745917362
C          -0.70045962246071    4.04387975126849   -2.67888550833634
C          -0.86444094275187    4.74143366410036   -3.86505600600853
C          -1.24121997812212    4.08223646703069   -5.02894760425829
C          -1.46979834568155    2.71324001233395   -5.04753305254241
Br         -1.44820854964129    5.08129435214015   -6.63092406761002
C          -0.83042642759075    1.67973364259961   -1.60950680555594
C          -0.36619391042479    1.91095188355803   -0.34279175535117
C           0.04233789132109    3.17687950677198    0.12987887806792
N           0.38245176484633    4.17875524836342    0.57431358309325
C          -0.20187215083010    0.92984395989908    0.65940499694955
N          -0.02434234896539    0.19364149335836    1.52248301543413
C          -1.24326845874516    0.39609895643355   -2.16135234793209
C          -1.55364097626809   -0.69962495599603   -1.41774096712208
C          -1.90735405563668   -2.02365879881955   -1.84679246510283
C          -2.76802305223114   -2.76512090476476   -1.01477207531659
C          -3.12961451447662   -4.03631214954453   -1.37504466319472
C          -2.61315265250545   -4.61912566921476   -2.54838268575214
C          -1.73117197303997   -3.91094705279597   -3.35532995620291
C          -1.38965473290875   -2.62124654440983   -3.00556551587094
C          -3.12308179509801   -5.96620614552339   -2.65023996084482
C          -3.96554980673371   -6.21393479085098   -1.54808436929328
C          -4.08381532506703   -4.98288555119866   -0.67982749641918
C          -3.67060010348839   -5.25965014710781    0.77373740632068
C          -2.23684868375251   -5.76618588041880    0.88421927644891
C          -5.49192250789310   -4.34662083624774   -0.76422779308630
C          -6.64626857138131   -5.22250731844228   -0.29577053213287
C          -4.52036186102071   -7.45590607487212   -1.37289384451077
C          -4.27077820581623   -8.47907167532397   -2.30726681569142
C          -3.44897782094111   -8.20427105909088   -3.41347037528976
C          -2.87465121046896   -6.96388494874025   -3.58667994834714
C          -4.88195271622535   -9.75672175257054   -2.07534240777244
C          -4.61875090153476  -10.90969181343523   -2.73921913160100
C          -5.23673815871695  -12.16215180437454   -2.47508996891066
C          -4.77223875032367  -13.32407066406524   -3.14644263157643
C          -5.30462837939055  -14.63155254664164   -2.88420279445949
N          -4.77971218523408  -15.69626789659411   -3.50058287845083
C          -3.80206787584483  -15.53316204316080   -4.36328023930127
C          -3.30962812621759  -14.22552135488851   -4.66425724508045
N          -3.78995143747968  -13.17211153890102   -4.05017173656824
C          -2.28767785381311  -14.05083215633278   -5.63156317522676
N          -1.46461701898323  -13.93690755844355   -6.41988294233204
C          -3.24248274219692  -16.67027207509602   -4.99539760494292
N          -2.76410460207816  -17.56963912932645   -5.51983137381019
C          -6.39747739539459  -14.85413903908132   -1.98288680379875
C          -6.89204058290897  -13.68096518175888   -1.34993113179164
C          -6.30503737823212  -12.37565770253121   -1.57162191777716
N          -6.90240165979874  -11.43907220488367   -0.83422388749020
S          -8.06509087227421  -12.10866157412777    0.04684364140606
N          -7.87822130862028  -13.62248795978896   -0.46081093337247
C          -6.79203710105201  -16.18425976500881   -1.77562664963235
C          -7.87120810179193  -16.75369590039931   -1.12827285143484
C          -9.06643674912435  -16.22334305476564   -0.60137774245649
C          -9.92168474509978  -17.16340780822951   -0.10159428624441
C          -9.43827177623452  -18.48540672760827   -0.18819626655839
S          -7.87760765280851  -18.50599555665029   -0.95255102016194
C         -10.06106059667958  -19.64473946082778    0.26098307889851
C         -11.34437537660116  -19.76225688131942    0.83772747705964
C         -11.66803738797707  -21.04376141259954    1.16926858178996
C         -10.64393327453289  -21.98890160884127    0.90565262438311
S          -9.27241891833011  -21.19465795658001    0.19673890010396
C         -10.78589962233640  -23.35504663337956    1.08465917715369
C          -9.86768533645704  -24.38730807214620    0.89520567317656
C          -8.48619992405014  -24.36238388007041    0.96636019839313
C          -7.61294164008163  -25.44681331484879    0.58098144371530
C          -7.94984010915463  -26.52893295767019   -0.19530792638451
C          -7.05249904000152  -27.55615572351373   -0.54959721227673
N          -6.37138927260787  -28.42530278454567   -0.86499506715623
C          -9.21879257598287  -26.74461978114185   -0.77043371435495
N         -10.21676152033058  -26.97966116065352   -1.28880051907969
C          -6.27556508748015  -25.14830834738354    1.08513108580459
C          -6.31193050423909  -23.88750881897973    1.72863209839136
C          -7.68632798429251  -23.35387714141608    1.67605310961476
O          -8.07576668649139  -22.31821565875884    2.18780814149886
C          -5.20558576373743  -23.31942329192080    2.30924548917491
C          -4.00220245786813  -24.03193403164946    2.25329625181099
C          -3.97591186490397  -25.29208371347422    1.61189616681418
C          -5.09692222380604  -25.86551351814792    1.02167685045262
S          -2.39185138640811  -26.00486434958070    1.66875014899752
C          -1.79545473567499  -24.61859932254864    2.54136333975985
C          -2.73155371493472  -23.66908829595134    2.77773601257659
Br          0.00571402092622  -24.55547882773196    3.06135277891350
H          -0.41445231969726    4.57581799641317   -1.78657119726951
H          -0.69977888539568    5.80774656767819   -3.88663204865000
H          -1.76545592523583    2.19559433314629   -5.94690966240869
H          -1.58938367565079   -0.56418102992168   -0.34228036271467
H          -3.14902798924178   -2.31243327497464   -0.11058582858617
H          -1.31481675975615   -4.36145239290679   -4.24309595270755
H          -0.68749755523141   -2.07601162109851   -3.61321914331610
H          -4.34386663672070   -6.00388342528325    1.20058263995818
H          -3.77648036853118   -4.33968366176594    1.35202033891978
H          -2.11004221631902   -6.68763449241791    0.31974209010137
H          -1.98956483016808   -5.96358720025104    1.92449990512318
H          -1.53533388201414   -5.02947083837744    0.49936192654041
H          -5.66918690134430   -4.06144076099283   -1.80466239596018
H          -5.47594358161248   -3.43017670322711   -0.17013171770916
H          -6.75903542218868   -6.09253059795037   -0.93660089278732
H          -7.57027290883228   -4.65003677035108   -0.34002293422712
H          -6.50458182412476   -5.55178058703412    0.73010574240454
H          -5.13221892484616   -7.67852303935176   -0.51170400320722
H          -3.26490361112138   -8.97775555931370   -4.14237331086429
H          -2.23564519587769   -6.77096652928596   -4.43506707821484
H          -5.60655676980040   -9.79086815066377   -1.27328554795101
H          -3.86598410947196  -10.94340961955347   -3.51373672237674
H          -6.10841875619202  -16.89417786873942   -2.22837414047534
H          -9.26061243333246  -15.16803628329061   -0.61024268003017
H         -10.87813344643136  -16.93340066245115    0.33183265410789
H         -11.99093545964896  -18.91604887469455    0.98327438798156
H         -12.60314344028443  -21.34017188361396    1.61059259596025
H         -11.79369891800790  -23.66936814305431    1.33224048858963
H         -10.31794367543586  -25.35902542583763    0.72640647291750
H          -5.26457004855982  -22.35651643193077    2.79183652121625
H          -5.02672621181363  -26.83033779979947    0.54787482183540
H          -2.53668009233711  -22.75116115288289    3.30165413057682
