117
 SCF done       -179.404346903385          0.000541593805
C          -3.35965145883935    0.49549496541947    0.35549294563337
O          -3.20549349276870   -0.46347545368294    1.07878272010851
C          -3.13917925711810    1.90749723475614    0.74709184784460
C          -3.38081016793050    2.75280785925835   -0.34757517148141
C          -3.22556339333266    4.12440097984743   -0.19925265830415
C          -2.83795976074183    4.62308400846003    1.03482530570503
C          -2.60793471928249    3.76691229822989    2.10385211439883
C          -2.75124997944517    2.39224644518328    1.97893677465932
Br         -2.08309859252944    4.49886918105220    3.77745726433307
C          -3.77607638721790    1.93387925905602   -1.48927662007213
C          -4.20355727343275    2.42153336386452   -2.69706349562630
C          -4.26020510112461    3.79424832417206   -3.01808774222538
N          -4.32578865794441    4.89390247149572   -3.34135007703098
C          -4.67662812443564    1.65017130641639   -3.78026037735429
N          -5.09165363028359    1.10895115575934   -4.70481112869973
C          -3.71966279647883    0.53829253798913   -1.08224133405420
C          -3.80689923134346   -0.50916166169807   -1.95510214621912
C          -3.89550706914203   -1.91876564550506   -1.73663089123509
C          -3.55250551823583   -2.75917748959954   -2.81874588317912
C          -3.66841135218133   -4.11630246415329   -2.69154522380838
C          -4.15364352091878   -4.68215309855465   -1.49560142467012
C          -4.51319827783889   -3.86581833166366   -0.42951146141020
C          -4.38072305883936   -2.50008361181663   -0.55262817346513
C          -4.23796972257077   -6.11083501219721   -1.66771528127656
C          -3.80216303367111   -6.43725547348680   -2.96644065482912
C          -3.32568339950590   -5.19957754947204   -3.69245290160633
C          -4.04216126581018   -4.99935958718183   -5.03573836879008
C          -5.55402381908075   -4.88518629905217   -4.87641970279582
C          -1.78703678979162   -5.18786262673978   -3.85728195919177
C          -1.20132333387979   -6.32954767033173   -4.67722579172044
C          -3.88934758944114   -7.73116730017513   -3.41686379721491
C          -4.39639710967310   -8.73824556633074   -2.57784937678716
C          -4.77542021621012   -8.40045713841413   -1.26998579122962
C          -4.70566067426361   -7.10230499043701   -0.81362199127815
C          -4.53065286419768  -10.06979008831880   -3.11421924689820
C          -5.25978296358850  -11.07294028106362   -2.58380963935752
C          -5.43214528746983  -12.35339105632402   -3.18348229734830
N          -6.32099194429863  -13.26145190712969   -2.68137587446263
C          -6.34854979672080  -14.37781370655722   -3.46558037354609
C          -5.42599911592110  -14.18845468820892   -4.49223729978551
C          -4.85927028203822  -12.93158816475883   -4.31592145684431
C          -7.21770370643387  -15.43752648325370   -3.23623523294072
C          -8.01975728075370  -16.33274111797597   -3.06346936871299
C          -8.98131411459773  -17.32206693691312   -2.89238520041200
C          -9.24519536193001  -18.25890212549513   -3.83114180119883
C         -10.27761511799938  -19.23433332781718   -3.73688710759108
C         -11.16173954986335  -19.50156167456119   -2.71419051281626
C         -12.08510320121567  -20.50289413662977   -3.02333365797016
C         -11.93408657247670  -21.03190035000992   -4.28464400939179
S         -10.59780486873384  -20.27238217747390   -5.09796805291402
C         -12.72843466108788  -22.04089599002103   -4.94476896016715
C         -13.97756972905474  -22.41396029906076   -4.42609278403537
C         -14.72920757876152  -23.35312851240150   -5.08753343032532
C         -14.26123420401337  -23.94789484939022   -6.27120529875548
C         -13.02593441650165  -23.58971441466098   -6.78933046436188
C         -12.27499410097582  -22.64085506436374   -6.12510853809167
C         -15.26374323558552  -24.88071931581064   -6.74488381508834
C         -16.34963279001094  -24.85874875010112   -5.85527689271638
C         -16.09740933640179  -23.88445390055406   -4.72824433736003
C         -16.08416380055936  -24.59482800607343   -3.36243000698792
C         -15.06330227030763  -25.72425612004718   -3.29551498544859
C         -17.14875319532396  -22.75918173059876   -4.71557407834544
C         -17.22165374677222  -22.00393818502976   -6.03720767495504
C         -17.44811328777110  -25.65429992264968   -6.07515322634763
C         -17.49078379843991  -26.49137414316452   -7.19786566149735
C         -16.39946113156208  -26.50474272593974   -8.07156178473205
C         -15.29014657015420  -25.71014658331630   -7.85572487242702
C         -18.67547021986523  -27.31317552618823   -7.40359471892294
C         -18.94688372369799  -28.07546987942569   -8.45698916635902
H          -3.39275995887067    4.80652590481585   -1.01623778760386
H          -2.71209348412660    5.68666666986141    1.16731488365085
H          -2.57207956738844    1.72080527613180    2.80436269218036
H          -3.78945639682771   -0.24274101278369   -3.00651449171943
H          -3.19654674907627   -2.31569311656667   -3.73782979342656
H          -4.90179516833272   -4.29330791146051    0.48225045289241
H          -4.68093095547082   -1.86662079207186    0.26377002390596
H          -3.81718406484187   -5.84279612276487   -5.68955520896130
H          -3.65741241989211   -4.09452221500094   -5.51049526563568
H          -5.95912474506385   -5.78112029695434   -4.41045240539060
H          -6.02415153579590   -4.76005409295483   -5.84893981468293
H          -5.81383252043699   -4.02936171337420   -4.25746509187101
H          -1.34306966035310   -5.21117533830954   -2.85834915703244
H          -1.51016543055262   -4.23713900540457   -4.31867195217245
H          -1.38820239281825   -7.28641301326266   -4.19760890848805
H          -0.12446227628549   -6.19753226400492   -4.75865719007964
H          -1.61419192281827   -6.34914330201478   -5.68231603378820
H          -3.60679844204038   -7.98923315887323   -4.42683517141953
H          -5.13133261884480   -9.17205485349239   -0.60467276967511
H          -5.01961540864946   -6.85730410088804    0.19016824142822
H          -4.03669557474580  -10.24186023527960   -4.06105555157876
H          -5.80445727037267  -10.91687059213924   -1.66107007042264
H          -6.90247725791516  -13.11725937669750   -1.87199071021883
H          -5.20847253321987  -14.89403864090244   -5.26939680979847
H          -4.10972637981651  -12.48456148290269   -4.93792362486744
H          -9.54642271663201  -17.28534323679899   -1.97012087863655
H          -8.66522724050332  -18.26200052572920   -4.74458476752731
H         -11.14405167563668  -18.98928091902408   -1.76876817460753
H         -12.83668924596773  -20.83596797269607   -2.33006205100561
H         -14.34925490574692  -21.94917050011627   -3.52590573369656
H         -12.65566689364201  -24.03959791334671   -7.69831755688884
H         -11.31132008447263  -22.34924069498600   -6.51837776581892
H         -17.08124295040297  -24.99524605660307   -3.16654279294935
H         -15.86225893022932  -23.85864201689697   -2.58655699692938
H         -15.27696588102496  -26.47891849646787   -4.04921397105419
H         -15.09052346346500  -26.19723989518162   -2.31640953243097
H         -14.05869482470894  -25.34395608817453   -3.46727780296018
H         -16.90508236565542  -22.06053596162327   -3.91206964180460
H         -18.12504824402855  -23.19552548622710   -4.49342122651886
H         -16.26504986173081  -21.54009546323416   -6.26761870066198
H         -17.97837929729485  -21.22455218561023   -5.98232741789151
H         -17.47976172365483  -22.67847856391404   -6.85059029945258
H         -18.28625427930372  -25.63871164205829   -5.39203498102111
H         -16.41877110158300  -27.15372071652308   -8.93329429772007
H         -14.45751111138766  -25.73671715597065   -8.54317006850831
H         -19.39757529675523  -27.26635627823157   -6.59665874856829
H         -18.28536055069739  -28.16325769113225   -9.30154504601861
H         -19.85864103377999  -28.64507203033988   -8.51394775438769
