134
 SCF done       -218.262800523290          0.000518552739
C          -3.60271408097733   -1.93034076221573   -2.14815535425036
O          -3.53396519245901   -2.96429284843426   -2.78300269542965
C          -2.62020812199350   -0.82766259837884   -2.24708025462174
C          -3.07915809547400    0.28451840887468   -1.52669748224898
C          -2.28657816352685    1.41840185140066   -1.43220169770919
C          -1.09326482440898    1.45413903855086   -2.13647978687044
C          -0.69570255686581    0.36824922662300   -2.90495170415598
C          -1.43197282396766   -0.80609718202557   -2.94834139171681
Br          0.87883327081486    0.51189725362060   -3.96026378649746
C          -4.40232766015812   -0.02984633512096   -1.00385781277347
C          -5.30104383190888    0.90531694426134   -0.57398111946107
C          -5.02565941422741    2.28944304062984   -0.59497419567298
N          -4.84737589804793    3.42280455792573   -0.61557435416961
C          -6.62271499008145    0.64572660369117   -0.15150961203041
N          -7.70389032944482    0.51509164963173    0.21187070716749
C          -4.63504893129758   -1.46116410042436   -1.19507621213699
C          -5.58273647898034   -2.13864302657839   -0.47856723930935
C          -5.96762816400112   -3.51423222988871   -0.41464133476808
C          -5.52948021216943   -4.50057606424841   -1.31522895128334
C          -5.92437198481396   -5.79901281596773   -1.13917005655103
C          -6.77472674504009   -6.17811741843482   -0.08223128670251
C          -7.24264057691120   -5.20608551260204    0.79894041116593
C          -6.84293786069862   -3.89933557980861    0.62465095579077
C          -6.98468786388734   -7.60616939981713   -0.15503887745986
C          -6.26130196161575   -8.10327098512099   -1.25698587058465
C          -5.54207614112269   -6.99160172739941   -1.97618043947474
C          -6.04365146406510   -6.84138098200854   -3.42475045513237
C          -7.54958835704072   -6.62389324159474   -3.50971566310555
C          -4.01732301467282   -7.20615865452298   -1.96719866297895
C          -3.44828853523525   -7.38148327423243   -0.56456242472326
C          -6.25666646217669   -9.43653886320573   -1.56324259692991
C          -6.97864618987406  -10.34422335029224   -0.76701994741952
C          -7.71106234105844   -9.83199180175071    0.31946952040806
C          -7.72019685209177   -8.48749579277658    0.63100975601368
C          -6.97366858650818  -11.75755910438705   -1.03438675665155
C          -6.19546541722677  -12.34373612419425   -1.98134900116790
C          -6.11176802638364  -13.70805764909089   -2.31688388979959
C          -5.25936558548603  -14.13639609380298   -3.30568889522383
C          -5.01686013743550  -15.44576710610871   -3.79133182116630
C          -4.08934653954678  -15.51972194066896   -4.78911778988219
C          -3.54003991094332  -14.27173433756313   -5.15622475779577
S          -4.25085213810132  -12.99786207167214   -4.18893690608744
C          -2.58413562223183  -13.93282375836086   -6.09167510263334
C          -1.82676466151982  -14.71418550946731   -6.99314568313295
C          -0.94936712405705  -13.99342108224834   -7.74394289318496
C          -0.94641117832045  -12.58907058621856   -7.49469915139080
S          -2.13661279148491  -12.24981218274478   -6.24472557108264
C          -0.18704193129338  -11.65778857359931   -8.14754792033043
C          -0.17161972420807  -10.23760000674481   -7.95946729726429
C          -0.78177275300222   -9.62510657385750   -6.85273941649928
C          -0.85255943788854   -8.26179638123750   -6.76805607983422
C          -0.31037218756820   -7.44109053761470   -7.77529397942466
C           0.36477634584987   -8.02919472805058   -8.84190077444441
C           0.43260572614693   -9.40468682459873   -8.92213317775237
C          -0.66224164340022   -6.06903282011357   -7.48062123662231
C          -1.45160475354521   -6.05986854102506   -6.31272585993062
C          -1.56171844718145   -7.44424884088379   -5.72094996281979
C          -3.02454666733564   -7.88310697226894   -5.55751525820253
C          -3.80331950215948   -7.83163766431853   -6.86692521792828
C          -0.81386526420597   -7.42716097567523   -4.36761985303391
C          -0.62748940336702   -8.78093136112596   -3.69525640212026
C          -2.00845066634358   -4.89918841990907   -5.85021884181588
C          -1.76387507390154   -3.69065981132633   -6.52704253197491
C          -0.94066720876315   -3.69977933767391   -7.66557263342089
C          -0.40248656484851   -4.87548206208489   -8.14862510040133
C          -2.40938685800959   -2.51640633948820   -6.02170477495982
C          -2.08384368130124   -1.21842848208633   -6.25861763305509
C          -2.83070470063351   -0.19599733285964   -5.63875570342181
C          -2.60123183824863    1.14678420008093   -5.52969873990292
C          -3.34787331151156    1.87676119572856   -4.47883152508348
O          -4.29332853214473    1.46145955647454   -3.83917013048017
C          -2.63074600012258    3.15360950378980   -4.29609235711034
C          -1.56399604866756    3.21803004198709   -5.21173290081819
C          -1.61162473000405    2.04304277699189   -6.08484410116177
C          -0.95003036920092    1.93809840697475   -7.27988343055202
C          -0.03453870788773    2.89951706602410   -7.75851996595188
N           0.72319872105930    3.63965839277015   -8.20057558883668
C          -1.15559632156743    0.92663320507348   -8.23957151398929
N          -1.29483402898174    0.15929411534388   -9.08229548664401
C          -0.68499482304829    4.28955179259329   -5.16395211581910
C          -0.89475977737300    5.28249024828759   -4.21884713609056
C          -1.96978886504766    5.21108284470313   -3.34163213909630
C          -2.85811480699266    4.14416702221187   -3.36176774337025
Br         -2.21092025699793    6.59521634736282   -2.06360961518626
H          -2.57932659735124    2.26875598594181   -0.83914180280972
H          -0.47192338334930    2.33631859144477   -2.09855086859167
H          -1.10479580405568   -1.66291679509060   -3.51684266491675
H          -6.11995789248975   -1.52628223965507    0.23840147277880
H          -4.88765519635647   -4.23400245190160   -2.13546385586688
H          -7.90618023860900   -5.47001162583929    1.60881886727342
H          -7.19906767290687   -3.14242055925817    1.30901673732984
H          -5.77850698329094   -7.74190066412120   -3.98226418316921
H          -5.53216724074371   -5.99356522408139   -3.88491618322099
H          -8.08569940146625   -7.46319576503559   -3.07191737916656
H          -7.85339432327196   -6.52683617231197   -4.54936951800011
H          -7.83965373333693   -5.71813804462645   -2.98184845773886
H          -3.54506140334352   -6.34187859827377   -2.43846741060360
H          -3.78399955730752   -8.09126567951159   -2.56125189144508
H          -3.64097636828863   -6.50005251583383    0.04323060661919
H          -2.37271784258592   -7.53429645593673   -0.61657740183086
H          -3.89426655596555   -8.24279260988708   -0.07195921058832
H          -5.69989358831162   -9.77935141847110   -2.42046261230976
H          -8.27569964741722  -10.52105265505815    0.93165391835153
H          -8.28874089595457   -8.12820802163152    1.47608517902195
H          -7.62179445763850  -12.37237254256851   -0.42298196612908
H          -5.53827819108201  -11.71186287240089   -2.56410205011248
H          -6.71953456800586  -14.43567509629933   -1.79772574838152
H          -5.53566612064391  -16.29613343459040   -3.38414959121185
H          -3.78517950166224  -16.43397154154678   -5.26798037900302
H          -1.95096487032629  -15.78060129008538   -7.06238900070341
H          -0.29252414198654  -14.42341307452124   -8.48014634241365
H           0.44590678292293  -12.03945282364355   -8.93984916618581
H          -1.20177970939276  -10.22129091454591   -6.06419922085980
H           0.80987223691456   -7.41823921923342   -9.61327817794898
H           0.93076171973310   -9.86269654166209   -9.76491404435994
H          -3.50066456446907   -7.22582769290504   -4.83023744267889
H          -3.05331192257379   -8.90267572357322   -5.17103483076154
H          -3.80109537168485   -6.82488021586558   -7.27895457630840
H          -4.83525625975539   -8.13149916728703   -6.69912970453964
H          -3.36672499170037   -8.50437786428394   -7.60145467339621
H          -1.36254267293849   -6.76527764488637   -3.69435365717195
H           0.17107954519473   -6.98295595538845   -4.53513010383433
H          -1.57700082181622   -9.28557366815147   -3.53931300374485
H          -0.15989565293014   -8.63707833032537   -2.72339309371961
H           0.01849501057644   -9.42314503534097   -4.28730171588792
H          -2.62734507932428   -4.88836955853168   -4.96481883363205
H          -0.76452097221959   -2.77576617598682   -8.19512901095984
H           0.20414618454426   -4.86778544174123   -9.04167498735396
H          -3.22557422920044   -2.70805280306613   -5.33344800495788
H          -1.22539689286843   -0.97224020071088   -6.86088079102851
H          -3.68549855872394   -0.53129941335425   -5.05615512233789
H           0.16086440712208    4.35816250728896   -5.82790056182863
H          -0.21582788664587    6.11940727064959   -4.16167909402498
H          -3.68655945902758    4.07989677001600   -2.67177616620157
