114
 SCF done       -191.080344362362          0.000526847052
C          -3.05062255535361   -2.60517892001522    5.95258388962688
O          -2.85214609968027   -3.76916385548771    5.68433490982434
C          -2.88089549719397   -1.99041591972029    7.28946460994479
C          -3.17036247490666   -0.61731855448394    7.22816107372232
C          -3.06914446838563    0.15491248613068    8.37755770735253
C          -2.68739188121487   -0.45680192186415    9.56145585358736
C          -2.40998735858000   -1.81739957282558    9.59836355593556
C          -2.49830328417723   -2.60888143823106    8.46178084308897
Br         -1.89680147405076   -2.61223451574879   11.24653311189823
C          -3.54788920576946   -0.28119744375332    5.85994308299348
C          -4.01902614242744    0.93597582436171    5.44344174042395
C          -4.14119973943610    2.06371889328972    6.28241842545812
N          -4.25751986328162    3.01610103957045    6.91253000784809
C          -4.48142921300601    1.23301820223505    4.14328759897925
N          -4.89583955091977    1.55521849308989    3.12195176637100
C          -3.42364823587237   -1.48498370148985    5.05212279248904
C          -3.44095866340608   -1.50406328413764    3.68856190913928
C          -3.43402607269528   -2.62729566954746    2.79970655270506
C          -3.99329060487800   -3.87042647924080    3.14154530634000
C          -3.95984544994485   -4.89309873575751    2.22957805170990
C          -3.38284549720888   -4.71320672925601    0.95849315147232
C          -2.85336006086287   -3.47868095466778    0.59803206834189
C          -2.89807941268881   -2.44834366204793    1.51036634608192
C          -3.50425000721550   -5.94896497829486    0.22055050634969
C          -4.15106508973086   -6.89470134494626    1.03645422315043
C          -4.48715519826509   -6.29904833152613    2.38211866062065
C          -3.76671077893563   -7.03767852397991    3.52627409452773
C          -2.25332449619842   -7.06536288192609    3.35275662071419
C          -6.00585545318894   -6.30696945393277    2.63726963416976
C          -6.79405243297976   -5.58983341208844    1.54762379594818
C          -4.40920023838176   -8.15811935306925    0.56720369852338
C          -4.04810845151614   -8.50517031648191   -0.74422710591750
C          -3.38991024487258   -7.55627010544466   -1.53942983798496
C          -3.11345170545689   -6.28981004755495   -1.06808027310915
C          -4.40644265461662   -9.81863274184386   -1.22360000187952
C          -4.38079160929627  -10.23440933712924   -2.50082100295544
N          -4.81410194985057  -11.47867567081320   -2.87654904487919
C          -4.98783375493166  -11.91463314812906   -4.14591997214638
S          -4.51451625688222  -10.95502371489178   -5.50797823804725
C          -5.17505629941403  -12.16441619600056   -6.56944100071745
N          -5.06898620399150  -11.93392501520763   -7.93674959267295
O          -5.52854094856193  -12.76974905888067   -8.69737227451098
O          -4.51400253358401  -10.89761805747021   -8.27752008300542
C          -5.72453395675444  -13.22918172977129   -5.90457415229025
C          -5.61773547224976  -13.11747950094921   -4.50645554879500
C          -6.08892717017975  -14.08532741961842   -3.55727073035114
C          -7.10815692203729  -14.95064488944533   -3.79183714206378
C          -7.55996756915980  -15.90416536867051   -2.85993639494680
C          -8.72273836845649  -16.61973388960871   -2.99372556269120
C          -9.24158971027387  -17.58524100528866   -2.09646848332157
C         -10.46684634745472  -18.07061754360118   -2.44227939209201
C         -10.99196826969317  -17.51183547956025   -3.62685584973398
S          -9.85025372040205  -16.37895150672609   -4.31999650976841
C         -12.24031592097262  -17.71935890448989   -4.18459391108823
C         -13.27360113244789  -18.55530186505437   -3.70467019831530
C         -14.43091352206841  -18.47931323952475   -4.41892191386620
C         -14.38673619374863  -17.58263548008155   -5.51281510346409
S         -12.77399843508821  -16.86858628202341   -5.61120196975539
C         -15.33491374109533  -17.20209252486603   -6.42792802840522
C         -16.70979975527508  -17.51940195506758   -6.49027128781714
C         -17.53254371169595  -17.03713110705213   -7.57407810658004
C         -18.83245229463720  -17.44198700074864   -7.37328890573240
C         -20.01143221017207  -17.22387100447376   -8.12444266658502
C         -21.17666662469148  -17.74737141791315   -7.64097012905804
C         -22.52042815727629  -17.70795615687335   -8.13521206120523
C         -23.33740748407044  -18.39594553856139   -7.26113971091294
C         -22.52426091669957  -18.89044587983888   -6.18812031715807
C         -21.21140247969372  -18.50663694916276   -6.40158809680367
C         -20.04073398445875  -18.72864959156535   -5.65455479692859
C         -18.86468502168616  -18.20148268817264   -6.13507095653592
C         -17.54092426319315  -18.22917583485727   -5.62416122961087
C         -24.76075482170414  -18.57333823274092   -7.41763017686760
C         -25.55644727656998  -19.23044303156788   -6.57792404357428
H          -3.27435064017501    1.21263620485860    8.37009261784868
H          -2.60388457274119    0.12862198596339   10.46419055661589
H          -2.28138563038734   -3.66567314285796    8.48294967156574
H          -3.42467728919382   -0.54213931540448    3.18819684283976
H          -4.46929230431329   -4.00370029752493    4.09791408275412
H          -2.42394977915832   -3.32692065289907   -0.38068040993312
H          -2.49286808340035   -1.48181693322365    1.24712594321090
H          -4.14835830794564   -8.05994275119491    3.57612295830015
H          -4.00627364611732   -6.53963783357423    4.46710529119960
H          -1.97806750657605   -7.53652224190844    2.41117438337090
H          -1.79700901615556   -7.62492863913831    4.16566885543133
H          -1.85119898695020   -6.05537887988773    3.36731173158160
H          -6.19923763096503   -5.82936392957226    3.59973910886004
H          -6.34323677492876   -7.34333251984916    2.70592926413733
H          -6.48895461292320   -4.54835395482464    1.47362835047402
H          -7.85744532771351   -5.62062502863361    1.77347048087499
H          -6.63378687979115   -6.06303899427259    0.58121713181278
H          -4.90889237769446   -8.88618804449592    1.19042528752431
H          -3.08580671501778   -7.82141136360222   -2.53980367357492
H          -2.60545855177450   -5.57371106948560   -1.69633732294827
H          -4.78250675201069  -10.50254891092887   -0.47156463037440
H          -4.04722137650376   -9.61055955646458   -3.31536435673858
H          -5.15225039157437  -12.08843375306030   -2.14176513850987
H          -6.16224895762039  -14.06426208018778   -6.41966635882374
H          -5.60605756334370  -14.10540585889009   -2.58765203016298
H          -7.64742296158130  -14.89103048949771   -4.72778280646191
H          -6.97438083890392  -16.06858678378601   -1.96466956064079
H          -8.69368943303731  -17.88447478074382   -1.22023199840723
H         -11.00900700530232  -18.80309526140339   -1.87133473127412
H         -13.13830460632442  -19.18512260370002   -2.84342058232311
H         -15.30464343213591  -19.06034708904515   -4.19300078963536
H         -14.98890189691655  -16.53242249873982   -7.20636354461573
H         -17.16391209831034  -16.45302801792292   -8.39864559570673
H         -19.97529605216788  -16.65645993054671   -9.04393914865263
H         -22.82898955371079  -17.21715735464080   -9.04020443058959
H         -22.88164867287771  -19.46557427257416   -5.35371257636720
H         -20.07570694838621  -19.29287562942830   -4.73312234576963
H         -17.26663809646741  -18.70244761510908   -4.70184171428962
H         -25.18057547503565  -18.11826207929941   -8.30646835631222
H         -25.18614397643488  -19.69982294597572   -5.68270039887441
H         -26.61298471160344  -19.32363396100871   -6.76039384006454
