100
 SCF done       -188.557430810787          0.000350268918
C           0.15986152599026   -1.85162152369145    0.25798095431663
C           0.70826600696662   -3.23347876596347   -0.05853429462874
C           2.04656766295288   -3.45371490688377   -0.34861542121511
C           2.50154269902764   -4.74172606197315   -0.57871018238722
C           1.63009955772434   -5.81351982922122   -0.50557608563114
C           0.29781557973379   -5.59770070416541   -0.19277950140140
C          -0.16193208512990   -4.31398875575319    0.03217546280050
C          -1.09443267905485   -1.53432103007365   -0.54172476739262
C          -2.06026102796848   -0.69169294410549   -0.00930255901646
C          -3.17708767070056   -0.35429846566246   -0.75265268702029
C          -3.33210888279906   -0.84546004605810   -2.03701363081849
C          -2.36771094899564   -1.68129211775506   -2.57351923554644
C          -1.25247781379586   -2.02568496130538   -1.83123982303065
C           1.14691653280549   -0.71075377254283    0.06764471771415
C           1.40599139325134   -0.19066746794260    1.33150286738167
C           0.59058368701989   -0.90199543681185    2.27532575286752
C           0.47808882259918   -0.70469099041812    3.63070639241709
C           1.15882504648651    0.30729188485257    4.32597906601803
N           1.66259201606780    1.12995162572788    4.94876377082321
C          -0.38771181178064   -1.50746508721072    4.39659721656646
N          -1.09592358689664   -2.15737660536220    5.02395390749651
O          -0.13831463077043   -1.84640625155314    1.66107636008924
C           2.39080864798670    0.71942168438025    1.72055925366157
N           3.24767470300856    1.41500030634561    2.04202967180264
C           1.56409872330310   -0.37192726895006   -1.21759836249734
C           2.16142092556794    0.78556400937575   -1.68237830775586
C           2.54572825206525    0.99128144740713   -3.03114744688810
C           3.03219687166656    2.23743506968655   -3.29498822244600
C           3.05341843025477    3.08077559969157   -2.16655476567467
S           2.43305464138567    2.23634167034802   -0.76110152821561
C           3.49692676018534    4.38592957248415   -2.06455661272120
C           3.99093340013133    5.23568959542500   -3.08401781557333
C           4.34213993166611    6.47464777616443   -2.64857184575712
C           4.15467436172575    6.67925211973153   -1.25466082624033
S           3.49636803446324    5.21290142660173   -0.53076513808200
C           4.43344351106972    7.83935086458767   -0.59293114720867
C           4.28164104500379    8.13905523559847    0.77784768113230
N           3.87241765747153    7.29501743816575    1.79063701643651
C           3.82752777817514    7.95220583359811    2.97321277964557
C           4.20988597506446    9.26783799556435    2.75078843469105
C           4.50060570438123    9.36969707656151    1.37574866330871
S           4.98077837651014   11.03850358508767    1.02317289194511
O           6.37278358192034   11.11131802919564    0.68319417134551
O           4.03241176497310   11.65358610505745    0.13156782490491
C           4.73579960236256   11.54909959474245    2.76164550171720
C           4.35706911110977   10.47903855531254    3.50402386984805
C           4.99087104386910   12.89038552267692    3.10285278090166
C           5.31736531558970   13.77633477975703    2.11544416803535
C           5.60511629588337   15.14144234587951    2.22728956879333
C           5.84254327085792   15.89879593229395    1.09938514208918
C           6.15754899538220   17.27546544094815    0.99852271642022
C           6.30375584345081   17.72199306097991   -0.28264034697104
C           6.10231441007386   16.71793462395960   -1.25569258372596
S           5.74493621349814   15.18634027724458   -0.49912268120002
C           6.12012140217469   16.80593710595305   -2.63765234543197
C           6.37379409019229   17.91500792438339   -3.47216180742913
C           6.25997373915392   17.63536560339286   -4.80058670693004
C           5.90625790142085   16.28901017957146   -5.08556641920710
S           5.75336252981680   15.38810442447890   -3.59192953839011
C           5.66199603427371   15.78063810153356   -6.33666302812435
C           5.27518500002237   14.46716963935841   -6.66908708998507
S           4.72820818692591   14.12482157118917   -8.30675876095404
C           4.39503735697952   12.46833596137076   -7.99674834253064
C           4.69329302307233   12.16168944070392   -6.69120275558494
C           5.19257586205441   13.28259175198436   -5.95421511827360
O           5.51591481180160   12.91060938957384   -4.69746264651972
C           5.21192096268586   11.59078287794178   -4.61330238679314
N           5.49945587411307   10.93434804707272   -3.39242400188533
O           5.15219020281251    9.76355094925551   -3.31448868898005
O           6.08171265949634   11.55248048420885   -2.53615071927709
C           4.70987535541414   11.07244471147841   -5.77683498597172
H           2.74059299997869   -2.62684921861413   -0.39501647057420
H           3.54405427180571   -4.90410129506686   -0.80887734004707
H           1.98937245908719   -6.81611869402483   -0.68335167455717
H          -0.38460714387894   -6.43115560132515   -0.12049280703123
H          -1.19684365588909   -4.13927615771944    0.28543074712163
H          -1.94910731468776   -0.30714138979922    0.99370431791539
H          -3.92539944051543    0.29619984715762   -0.32542821844304
H          -4.20278102095186   -0.57999815175103   -2.61767716926068
H          -2.48364308971527   -2.07127194041197   -3.57387920283437
H          -0.51132795137031   -2.69014618247312   -2.25167192982194
H           1.32459007592944   -1.09698754218366   -1.98609594159949
H           2.45420511995675    0.20736577194325   -3.76213419932034
H           3.37795015013239    2.56167481902288   -4.26003581231596
H           4.06454583884907    4.90360488318339   -4.10383010586083
H           4.72832293325328    7.27013994314899   -3.26078729479266
H           4.80715022134957    8.65873802157286   -1.19389817715291
H           3.65505708065000    6.31693690947219    1.67135650145225
H           3.53382071757983    7.45623361969435    3.87723050782999
H           4.16778172380669   10.51743534687308    4.56513382544883
H           4.91599865270788   13.19827782132034    4.13861186108195
H           5.34971163010579   13.37652632288975    1.11069241230130
H           5.63801073885561   15.61858820569919    3.19724637357383
H           6.26606995208802   17.89323523704013    1.87285547056014
H           6.54115975274549   18.73676638941008   -0.54884136903376
H           6.62911718855122   18.88117172989076   -3.07485506902592
H           6.40996230323861   18.35136006838038   -5.58933781273202
H           5.73028415682115   16.46987176341615   -7.16765353956475
H           4.01516940276241   11.84000229687295   -8.77447579126974
H           4.41105870208316   10.05841589205936   -5.94196954584651
