116
 SCF done       -216.196456170754          0.000529816167
C           7.40393913975117    1.45902492810581    2.34300677488440
C           8.23183136423563    0.23920657363330    1.95537421995473
C           7.91770314779473   -0.55472940334495    0.86159905721105
C           8.73278507345704   -1.62441581113244    0.52980596165030
C           9.86604223346654   -1.89594637387905    1.27537968255580
C          10.19076986516658   -1.09100903302169    2.35513349367095
C           9.37796872403694   -0.02596688084955    2.69520370309678
C           7.06584152895102    1.45131995550700    3.82496887960289
C           7.08576410196189    2.62400715822076    4.56513437856241
C           6.71611970322850    2.60608504769994    5.89898512621148
C           6.31045416376676    1.42422626955867    6.49456255677755
C           6.28862227482358    0.25215536053704    5.75718174243504
C           6.66701977986217    0.26170666357247    4.42603339572327
C           6.12766766691588    1.59648903875899    1.54114679431758
C           6.22348492988358    2.71350563647648    0.75495539686496
C           7.50482528299832    3.32116169354334    1.03628578133943
C           8.04462618915032    4.45441579694398    0.49975817867974
C           7.39699158974145    5.21395917932687   -0.49324313191353
N           6.91205759569835    5.86549512821860   -1.30244960678093
C           9.30231250615335    4.92318585287347    0.93336988750447
N          10.32054634588748    5.30793681836688    1.29315260743184
O           8.15704085945184    2.61787497394573    1.98344234333464
C           5.21972639587083    3.25979309638831   -0.05814327895001
N           4.34735417619164    3.68297926247639   -0.67045846892237
N           5.11265638296120    0.72472252130529    1.71819612729787
C           4.09305016520293    0.45287395269088    0.83510937670427
S           4.37467452333460    0.41246927471277   -0.87405645968326
C           2.74747913008533   -0.13002504294326   -1.10175106826296
N           2.32136251443608   -0.36749950646199   -2.42133157418160
O           1.17227017632598   -0.72317040487184   -2.58465516929890
O           3.15079914734682   -0.21065135613116   -3.29641513296330
C           2.04551803300276   -0.28340697586696    0.05892224237750
C           2.80862021861326    0.04376060525608    1.20381558307446
C           2.35211967756542    0.01593808606226    2.55921800713976
C           1.12579514916335   -0.41790285843212    2.95219740181646
C           0.67906746219287   -0.40588447708769    4.28606229519590
C          -0.55979433288706   -0.84273655324568    4.67918367678542
C          -1.09227940327913   -0.84112663015438    5.99410050093790
C          -2.35766645922611   -1.33105363023025    6.08661851080388
C          -2.89951665332573   -1.75549776098421    4.85017233527018
S          -1.74425556773131   -1.50310507781734    3.56222767877557
C          -4.14346532714422   -2.30555691100923    4.61648073483733
C          -5.16975766788132   -2.55676934889949    5.55809053225487
C          -6.28833098875326   -3.12184171060671    5.03136504934452
C          -6.20527641428008   -3.35231441409226    3.62951704496133
S          -4.65044154712495   -2.80896402477092    3.01784544572624
C          -7.12417426529359   -3.91153984150872    2.78651604417223
N          -8.33233357453856   -4.35923504532384    3.22012664844645
C          -9.30074990655888   -4.93082283536028    2.48408813638420
S          -9.14148355996115   -5.15846663472221    0.77181246838620
C         -10.73262146554826   -5.87150943860833    0.73677619158741
N         -11.21060602153656   -6.30440529285919   -0.50332198636030
O         -12.32052120321194   -6.80408873138629   -0.54026211954187
O         -10.46797193061516   -6.14599982042313   -1.45823474779720
C         -11.34091132138509   -5.92852741127918    1.95817011035664
C         -10.54059931322190   -5.39776489587319    2.98905996949865
C         -10.86191480333348   -5.31460497358774    4.36655661070952
C         -12.01188500551190   -5.68595024413983    4.99035659991773
C         -12.19349290621459   -5.52814552684782    6.38258886314202
C         -11.38002078377490   -4.93455786915278    7.33043207195099
C         -12.06441111730162   -4.99107549655306    8.59802099566558
C         -11.62987879257294   -4.52348632976884    9.81093610056586
C         -10.37775797399013   -3.90689235195650    9.97414243476443
N          -9.36277166457151   -3.39892113536198   10.14477670964218
C         -12.43412437760387   -4.63921280525067   10.96181067472918
N         -13.08872718341750   -4.72431997191494   11.89959516031579
O         -13.25926376826092   -5.57677019417969    8.45583305765600
C         -13.44432899034292   -5.99099003753430    7.09266101446138
C         -13.63847701373463   -7.50038178771999    7.11910632954155
C         -14.75232515196344   -7.99037826327613    7.79104211893348
C         -14.96257368190559   -9.35316012745773    7.88370323289654
C         -14.06364377656560  -10.23556516691728    7.30680129427347
C         -12.94917312245003   -9.74937422897560    6.64731252631512
C         -12.72944355181490   -8.38452713255135    6.55807002926454
C         -14.65149766190494   -5.28928619250780    6.48445556986608
C         -15.03268248124184   -4.03475670443830    6.93783293841821
C         -16.10724550225428   -3.38436588423223    6.35695589902742
C         -16.79608981076840   -3.97470344083480    5.31201661619869
C         -16.41300870430873   -5.22392907880738    4.85379055798977
C         -15.34553088714079   -5.88214966399018    5.43730489608774
C         -10.12354309177915   -4.35879858664167    7.12701998827067
N          -9.09321689044191   -3.91104709224254    6.87578359830334
H           7.04822272346968   -0.34734224255734    0.25393313394959
H           8.48024407242838   -2.23917299637830   -0.32056889352050
H          10.50035422747804   -2.72795991615190    1.01034685321778
H          11.08083163204342   -1.28936853410775    2.93222241863122
H           9.62910281831360    0.61120773113022    3.52958550861713
H           7.40742685990938    3.54539347705563    4.10430009500983
H           6.74490036236196    3.52033368459083    6.47147058193426
H           6.01989528363196    1.41352350843166    7.53389897440075
H           5.98422730180868   -0.67528198181889    6.21857129587506
H           6.68978882459158   -0.66497804739520    3.86720442480446
H           5.14453196782741    0.17245031220981    2.56981282078177
H           1.02114437323346   -0.60629592793476    0.06885437012338
H           3.03336288248201    0.39088422013822    3.31267280147607
H           0.43099010986119   -0.79705471952061    2.21591676486435
H           1.34154301535715   -0.02180546795195    5.05058147661803
H          -0.51943968652515   -0.47318919056306    6.82684924131870
H          -2.91424927454470   -1.40162523223947    7.00346796288635
H          -5.05813945897391   -2.31356005943552    6.59891726033844
H          -7.15302106973643   -3.36770824780230    5.62315819811833
H          -6.91539348601887   -4.02347431457008    1.73368262549025
H          -8.51207967543167   -4.24084532854997    4.21277662740956
H         -12.32309090848396   -6.34255487842346    2.09280059653523
H         -10.08859343490430   -4.91003712903902    4.99832257373364
H         -12.83352806572048   -6.11281524106578    4.43532453199254
H         -15.44499805543114   -7.29616449131764    8.24227837964756
H         -15.82909246411355   -9.72630906462321    8.40785367400541
H         -14.22892103682438  -11.30001555366816    7.37613541701945
H         -12.24025204270386  -10.43144193976951    6.20242692971990
H         -11.84936020680733   -8.01956309426066    6.04811428828693
H         -14.50402183323618   -3.56947067410985    7.75659009965383
H         -16.40310882510078   -2.41309719289238    6.72334348153402
H         -17.63174001317167   -3.46468263047838    4.85754669864212
H         -16.94822933487967   -5.69201470068986    4.04155367616897
H         -15.06376918215848   -6.86544259003441    5.08895989252604
