88
 SCF done       -158.186413612409          0.000513849199
C          -9.97921910314876  -21.28498487940320    3.35591220557327
S          -8.93866471034090  -19.93040045709845    3.29053334269188
C          -8.15550636560205  -20.49584398276285    1.84583096149047
C          -8.70976491423622  -21.71916017418833    1.43761966934400
C          -9.75728210997383  -22.15858895674729    2.31785189627292
C         -10.43293704300807  -23.38682139030900    2.05480132431662
C         -11.45831544996894  -23.81219516575430    2.92315007113893
N         -12.28941522829157  -24.15650559503905    3.63521032320935
C         -10.07516367778603  -24.14039462234487    0.95801417108128
C          -9.05670709465204  -23.71608759210368    0.09923496044860
C          -8.37667993989387  -22.53040470648945    0.32113320339913
C          -7.35997938432992  -22.16471553289002   -0.58335700668597
N          -6.53254073645865  -21.87151130593899   -1.32535435764842
C          -7.11336291355960  -19.78898677033084    1.21608268247147
C          -6.56810741392489  -18.60822093730180    1.61263276225563
C          -5.51583734936965  -17.98260256915696    0.91892081397329
S          -4.87116595326591  -16.45949994198702    1.52460190809237
C          -3.66295877176776  -16.30669184868540    0.25493763986796
C          -3.79756946735829  -17.40852326707275   -0.58010748318033
C          -4.80911983376131  -18.33153378912478   -0.22549147229225
N          -4.77516592044485  -19.33305565941395   -1.16515827940942
C          -3.79068140080380  -19.06757082107695   -2.07973226867917
S          -3.38399336307507  -19.97905827302985   -3.37564441804543
N          -3.19668246224344  -17.88759922196642   -1.71400241682205
C          -2.74069411479235  -15.25342777809433    0.15700965757375
C          -2.55997682310266  -14.11192135266380    0.96379431143791
C          -1.48163889163309  -13.28914005335748    0.52306908573434
C          -1.16183000368088  -12.11867336703729    1.23337780659752
C          -1.88985424385809  -11.78156069300866    2.34101594773598
C          -2.95657224087965  -12.58741350819276    2.77251592674111
C          -3.29309978135559  -13.73160066754098    2.10227488404528
C          -0.82501661766622  -13.78957685800921   -0.62036215134792
S          -1.56493577987629  -15.27657012600046   -1.13175091577414
C           0.30183839013924  -13.25066375163965   -1.25320505090281
C           0.92074014246961  -13.77411608545568   -2.35420902187428
C           2.13499928133343  -13.31518665628710   -2.92033293213894
C           3.13179036917028  -12.63847695572571   -2.23847777245553
O           4.21778175280619  -12.07820037008230   -2.88001788263439
C           4.32032192961813  -12.35846563294837   -4.20888800587051
C           3.35675824227950  -13.15949503332333   -4.88898129715275
C           3.65797078191385  -13.34390029917341   -6.19824037108908
S           5.12278992592153  -12.53906736781544   -6.62285205140201
C           5.33057168884631  -11.95012568915928   -5.01626503721124
O           2.25193369452043  -13.64603400493936   -4.26115274983748
C           3.16069445907100  -12.53971601271448   -0.82282507327663
C           3.99440291447459  -11.71173796153431   -0.13506131473260
C           4.09228519054581  -11.55377779709478    1.26384024468599
S           5.35754857676170  -10.50256173939996    1.82698412903002
C           4.92068500869449  -10.67882583798203    3.48805506083223
C           3.84123425517219  -11.55908685980994    3.61530867508640
C           3.35721988813019  -12.04740413840863    2.35930205653042
C           2.24340594061630  -12.91239310044807    2.36819845809217
C           1.66006047804368  -13.31446628728682    3.53564799502048
C           0.48285992849131  -14.23438898954141    3.55368349488153
C           2.19488810067089  -12.87279015036999    4.78339969326323
O           1.56308271712871  -13.37391177013695    5.87991020158376
C           2.03602353705661  -13.01087342795892    7.15278297540512
C           3.26187913371487  -12.01587570528630    4.81871871050020
C           5.67023883524281   -9.93224263248729    4.45810799451985
C           5.25451271645332   -9.52289337114689    5.65711650069876
H         -10.69807287523290  -21.37610706165336    4.14515131813679
H         -10.58626745704508  -25.07017031530856    0.75820986092490
H          -8.79342733103821  -24.32324905818960   -0.75374946792957
H          -6.71614805329226  -20.24857299710339    0.33023310053243
H          -6.93557731762791  -18.10726039939642    2.49777625703619
H          -5.34691983238021  -20.16769841804254   -1.24033859208619
H          -2.43998978320326  -17.47109737669094   -2.22941869160599
H          -0.34493853901453  -11.49464986615754    0.90591100511911
H          -1.64680297839258  -10.88619145620484    2.89288532724917
H          -3.51687013346712  -12.29538991543632    3.64784082625684
H          -4.11400100838491  -14.34087656903654    2.44249072268573
H           0.68299176587225  -12.33571591808423   -0.82358304834228
H           0.43199977947789  -14.56787333983005   -2.90455728933523
H           3.10940194003605  -13.89978169262019   -6.92911031447558
H           6.17507962250934  -11.34527707804341   -4.76085252529982
H           2.50687571246278  -13.21615632180678   -0.30502848098080
H           4.65983481129499  -11.08360758151643   -0.71391672404723
H           1.82993753398184  -13.27857967423357    1.44465305658781
H           0.23496447501598  -14.57094303439995    2.55075164541996
H          -0.38283985114853  -13.72608921286142    3.97650838938933
H           0.69301160146187  -15.09674521292154    4.18361198806672
H           1.39469405639107  -13.52855529887079    7.86435279892280
H           1.95961182962430  -11.93097236589712    7.31686460335517
H           3.07311800328183  -13.32792773358943    7.30286462927457
H           3.69601787673938  -11.70041489632633    5.75100897657744
H           6.66083981469348   -9.64484484319012    4.12536026863545
H           4.25876984126834   -9.70115026327367    6.02114305517671
H           5.90524772121653   -8.95869260692419    6.30195488966398
