64
 SCF done       -127.286770803860          0.000405771627
C          -1.20126069015956   -1.99004695873684   -2.10087045486008
N           0.05210608013169   -1.78543204457420   -2.50536121284025
C           0.96449132026174   -1.68946606559420   -1.56856926330120
C           0.58756886790798   -1.81813754666393   -0.21541913042203
N          -0.70807266772855   -1.95192905691256    0.09592152525647
N          -1.59375712728681   -2.03913668174451   -0.84556989520703
N           1.40583460053210   -1.76818173847367    0.87739388828357
C           2.76226982370351   -1.78753676324045    0.98766600095904
S           3.81269948466294   -2.18795968678264   -0.33127357398757
C           5.17365565177193   -2.14868661877162    0.74649376150303
N           6.43550283145542   -2.40317025085698    0.20143783780877
O           7.39390674113624   -2.37406475293471    0.95055427182149
O           6.47601226736370   -2.63899793614595   -0.99484860943238
C           4.83017568260067   -1.85238733223504    2.03574453823724
C           3.44884725950311   -1.61977608926241    2.20004861639513
C           2.88552467550592   -1.26546480638866    3.47228301545767
C           1.72331989357516   -0.60435949813137    3.70680277142280
C           1.24990335639638   -0.31007079727193    5.00288588677679
C           0.09514946686211    0.37888910973693    5.25834669366266
C          -0.43389083165090    0.71446578360827    6.53204829418654
C          -1.59664344419323    1.41677094468537    6.48827719493838
C          -2.06241182357868    1.67895719058630    5.17747605545170
S          -0.96767345024272    0.99267255420717    3.99686633966989
C          -3.19252424510207    2.37693702180328    4.80821210347466
C          -4.13079027618710    3.00999388231504    5.65863698939325
C          -5.13457695064297    3.65126529739793    5.00518118310783
C          -5.05517019204551    3.55383099218809    3.58783476705046
S          -3.64221820724335    2.61033231610120    3.13063115669046
C          -5.88349952674291    4.07007850257572    2.63484925128528
N          -6.97178378040221    4.83310853950749    2.92747736223655
C          -7.82184482533460    5.38860477566333    2.03997618164129
S          -7.57283534928151    5.21503919347265    0.32959086758017
C          -8.93050525911428    6.26445344692974    0.03945600847910
N          -9.26227814572922    6.52285391683135   -1.28945938515521
O         -10.20977386284996    7.25689445714549   -1.51015866105433
O          -8.56576991968509    5.98708912013176   -2.13892583564580
C          -9.51896852083893    6.71992690765491    1.18783481354966
C          -8.91723977597228    6.21490989502519    2.35514348211688
C          -9.39925610555950    6.55635378023861    3.66378483203623
C          -9.22078840534357    5.89006009439000    4.81965590182170
C          -9.73824536990099    6.38113870728183    6.07373749463343
N         -10.44577273797158    7.52508847403430    6.09527109607509
C         -10.89287247677928    7.90044262112581    7.27109962098767
C         -10.63171311060877    7.12869285740345    8.40831009225686
N          -9.89883967321365    6.03290868564374    8.31570565856807
N          -9.44873691470892    5.65950633495489    7.15858103502675
H          -1.95858396013388   -2.09845852019420   -2.86220272283178
H           1.97552434647931   -1.48592929753851   -1.89073061628501
H           0.89144146138861   -1.81903133297490    1.75376456144950
H           5.55440395940685   -1.78432858427405    2.82724546279911
H           3.50209527193388   -1.52557003053911    4.32282370043612
H           1.12326783945852   -0.22137645475945    2.89151078753665
H           1.82939805520667   -0.64999577927521    5.85050881734302
H           0.06934231097548    0.42445455290057    7.43738315539577
H          -2.13309597782389    1.75239123632470    7.35737799455590
H          -4.03643029496604    2.97779556922492    6.72892890479007
H          -5.92519779800367    4.17976822222380    5.50915424707575
H          -5.69884719736120    3.88269388921558    1.58817126487694
H          -7.12836086312832    5.06836069500118    3.90105018979220
H         -10.36900507105411    7.37800983715891    1.17999596225182
H         -10.00121214377319    7.45488202008492    3.70934545260697
H          -8.73195060648968    4.93020351510950    4.89956364670975
H         -11.45792351296817    8.82290581402906    7.30920456937287
H         -10.99159015600437    7.38709386985266    9.39191405433978
