74
 SCF done       -132.023927790069          0.000312277936
C          -1.51480474026458    7.28425217031761    2.18572953432513
N          -1.87414447203984    6.29388588247554    1.41442054632980
N          -1.47890689951980    5.06308742575248    1.60768198791262
C          -0.71653701721039    4.69538193957627    2.62659972569342
C          -0.28337158311735    5.69905410368326    3.54739394953481
C          -0.68431715011222    7.05188352654277    3.30072926369168
N          -0.19780270709727    7.89454885117810    4.21075613988465
S           0.67380198169605    7.05554266430160    5.27172294218497
N           0.47787597797278    5.58903332267719    4.62851147752194
C          -0.36879676495242    3.32147881450156    2.81951970252753
S           0.45931481776704    2.90418163171815    4.29381410127095
C           0.31490958375214    1.23211780288573    3.94081100641916
C          -0.33403342757704    0.98102131254547    2.77514030750341
C          -0.57746278887175   -0.39390982453159    2.24536835448184
C          -0.71551869778235    2.17945135681148    2.09027354312479
C          -1.34675205416207    2.10251618859367    0.80769823975969
C          -1.19552944255962    2.98138565416351   -0.21463633889569
C          -1.80642030118655    2.89479760953087   -1.48942638635671
C          -2.60662733849922    1.88319039282139   -1.94770689747415
C          -3.23084275173818    1.82142437515843   -3.20581917975472
C          -3.50668427495910    2.86531219789934   -4.06281810599444
C          -3.49509007477241    4.26274899803546   -3.84703339443298
C          -3.84238127819957    5.00062501959334   -4.94029665106005
C          -4.14608640104868    4.23292817523525   -6.08474436570415
S          -4.02904789632218    2.53087776465677   -5.71134219830580
C          -4.47534186747285    4.69648937405928   -7.34699648631000
C          -4.55097607041168    6.03806362078654   -7.77614036357939
C          -4.84928243137517    6.17547317805634   -9.09807944503709
C          -5.02612686084209    4.95137636100458   -9.78861409522199
S          -4.81989510830266    3.61155237139683   -8.67841933055725
C          -5.28149581074397    4.84122229436855  -11.13576560647481
C          -5.46648856437098    3.67867861530310  -11.89210139892983
S          -5.48234018078526    2.10047516214582  -11.15411182702530
C          -5.71840538152454    1.35642154732511  -12.68436394349398
C          -5.75904242853585    2.23221918359780  -13.72376188794837
C          -6.00455027361656    1.77103998687733  -15.12296813869993
C          -5.61221723798008    3.58793104183819  -13.29536790760327
C          -5.60980362727528    4.74865896346405  -14.12249200077422
C          -5.32866467370078    4.82935521347290  -15.44850635280897
C          -5.33542523373540    6.06241170891465  -16.14712821084622
C          -4.98231374176194    6.18966048153640  -17.44943168740817
C          -4.96799133427342    7.44462651371194  -18.13559324017970
N          -5.33128958124506    8.55210023123014  -17.50506097405151
N          -5.33398388335177    9.72805220067598  -18.07808163332016
C          -4.97510776245647    9.91233514140297  -19.32016399975178
C          -4.55989823587282    8.82435223707662  -20.11626827814950
C          -4.55719135449744    7.53058267895956  -19.50025981210591
N          -4.15004064336415    6.57612524803435  -20.32975368902220
S          -3.80403841125043    7.25229835751081  -21.75247440978739
N          -4.15287884030784    8.77955099500051  -21.38418457351680
H          -1.88013249543772    8.26707200668674    1.93261550640491
H           0.72526002803579    0.51424378134239    4.62430372068356
H          -0.13948148858843   -1.13407493417913    2.90984794628474
H          -0.13656819052229   -0.50580534304415    1.25590826100682
H          -1.64656794412400   -0.58986046777739    2.16721470297096
H          -1.92940661764331    1.20538756291410    0.64699551554714
H          -0.55205745858880    3.83321578487639   -0.06157731660651
H          -1.57004358268043    3.69971739656071   -2.17004490349320
H          -2.72643042804760    1.00193164042368   -1.33100131537612
H          -3.53097057784569    0.83823807632340   -3.54662999527191
H          -3.28641280833672    4.68837145787926   -2.88276397153765
H          -3.89227576058044    6.07462528189127   -4.94767875653885
H          -4.37757850653793    6.86174743304649   -7.10755791554207
H          -4.94334571075657    7.12000653725101   -9.60439790002114
H          -5.32917599863197    5.78127130571610  -11.66893119749095
H          -5.82291132206924    0.28992758109908  -12.73129042953000
H          -6.40084428865680    0.75806568223780  -15.11180360444208
H          -5.07790214884833    1.76191642391319  -15.69628538295307
H          -6.71782046063197    2.42379318414407  -15.62172515962515
H          -5.82373094837974    5.68408348641511  -13.62077887978340
H          -5.03694691382043    3.95705885437414  -16.01098340761817
H          -5.62698498349111    6.95778343642363  -15.61496306261969
H          -4.67925543652709    5.33162817784421  -18.03375450942704
H          -5.01089071746937   10.92161558999342  -19.69994595682996
