59
 SCF done       -126.170929323193          0.000540638071
C           1.80520452179454    2.78213673216148   -0.72287015314681
S           2.41942178884897    1.26670718238920   -0.18045721110289
C           1.88550698964139    0.46305352150795   -1.63543900983863
C           1.26543310303958    1.36304246670493   -2.47727677204563
C           1.22442599943981    2.67847745925243   -1.94988523036861
S           0.45414190551432    3.88377763521126   -2.94936930818419
C           0.05099459593721    2.79671408683495   -4.26825800495683
S          -0.72585069148434    3.29438612900901   -5.60674168446587
S           0.54799466654985    1.12460355819973   -4.04102539216402
C           2.10247655380256   -0.91972988064131   -1.81852483499543
S           1.58587019033919   -1.79115519714153   -3.23392533008517
C           2.72896779021244   -1.78906870536080   -0.93662581474737
N           3.29256638002255   -1.57971868919771    0.28190919446429
C           3.76156311928225   -2.66394808935647    0.75966238758897
S           3.57824178711077   -4.11394181539967   -0.22315595893657
C           2.77959020621885   -3.13094376817970   -1.40517949548682
C           2.20107307631908   -3.32734765630394   -2.64609569415566
C           2.04127149564080   -4.49051386734296   -3.42638191851685
C           2.45442950605434   -5.73066282203846   -3.04642144361476
C           2.26121321827120   -6.87709375911221   -3.84158632372036
S           2.77882281483496   -8.45035604781321   -3.29230345614549
C           1.66702215839395   -6.99699406555333   -5.09650056272013
N           1.11052518407181   -6.08329137316686   -5.93701223927809
C           0.67664536336879   -6.64022816159425   -6.99885694092527
S           0.88446878570450   -8.38352997943440   -7.13306865994524
C           1.64090122980569   -8.33347049565283   -5.57739898187434
C           2.19909128400553   -9.27452275934641   -4.73041529533377
C           2.29971026059836  -10.66355233304281   -4.92743063811953
C           2.85082090813738  -11.52814842484648   -4.03252587596333
C           2.92202943542409  -12.91842217383495   -4.24572571339329
S           3.62727431196980  -13.98235215310537   -3.05990034606121
C           2.48045429600670  -13.67107784441055   -5.33274445245749
N           1.87356089245112  -13.31538031538114   -6.49650658300577
C           1.63746516092113  -14.33381925719843   -7.22507825369231
S           2.12713262876112  -15.90042367614941   -6.58713773714674
C           2.71278000434912  -15.06694276052331   -5.18568965902066
C           3.33137376197214  -15.42905637574617   -4.00342156092042
C           3.71798323273330  -16.69311973172541   -3.50258792868935
C           3.50904665154516  -17.86657086946303   -4.14849569645531
C           3.89222929112513  -19.14275993382824   -3.66143353902024
S           3.52597297172490  -20.56502853952184   -4.61065330109435
C           4.24469953637958  -21.61787404362487   -3.45751616426839
C           4.73976472613209  -20.91998701688054   -2.39882395336411
C           4.54509676563770  -19.51825792244838   -2.50386003527970
S           5.16033091538305  -18.56656182193402   -1.18198041783373
C           5.79753589070662  -19.91048674242979   -0.24921018392839
S           6.54863087963441  -19.69679871930856    1.17711025595397
S           5.56264258258495  -21.49355704363020   -0.97002962515621
H           1.90476484437762    3.65625055190908   -0.11351164803755
H           4.25096149937499   -2.73048887502816    1.71119040570046
H           1.54924682247928   -4.37432874413237   -4.38136366043358
H           2.94724487230973   -5.87755248771444   -2.09510675134425
H           0.20091276684871   -6.10272719591105   -7.79545976977418
H           1.89903546262838  -11.04803143240334   -5.85614277177348
H           3.25489553027934  -11.15210410819108   -3.10175841555424
H           1.16425656317316  -14.28038598684414   -8.18564474452034
H           4.20542674109827  -16.68403922354403   -2.53809545940345
H           3.01371812359062  -17.86870819235214   -5.10936383071359
H           4.26207864692049  -22.67516824540103   -3.62105781051773
