117
 SCF done       -175.075687936086          0.000594251768
C           1.61492928631938   -1.08631312919993    1.75951575944408
C           2.24388476391285   -0.43352291728575    0.70800386354673
N           2.19119065130850    0.87434818195229    0.55459339129386
C           1.50232066715411    1.57455489662858    1.45857487524284
N           0.86846540311782    1.03865757207408    2.50349108258330
C           0.92616293615445   -0.26999067417438    2.64662135060723
C           1.43907019849365    3.02373477125658    1.29183192046336
C           2.07457141139068    3.62670860891377    0.20065947957198
C           2.00160605128239    4.99106047018366    0.05944535531262
C           1.30373866261921    5.77156154252626    0.99735920009350
C           0.67306861568257    5.17606376394764    2.08037339209804
C           0.74452951513139    3.80381832527734    2.21950608650774
C           1.39399256967673    7.16117612753552    0.59628727464637
C           2.14108435675427    7.23697186610634   -0.59114188212426
C           2.59753057415776    5.86243657278648   -1.02173756502287
C           2.04571989601555    5.49390533587404   -2.41085270551059
C           0.52561725785142    5.57315244369711   -2.48167031040864
C           4.13426329658125    5.75928580827363   -1.03422745992260
C           4.76165534391409    6.11334944496724    0.30856459269623
C           2.37061608748983    8.44540750932623   -1.20197487576889
C           1.85793396312561    9.61881139447254   -0.63171706110574
C           1.13024745019509    9.52710962072504    0.56109102547787
C           0.89016539513388    8.31476260017108    1.17715975852672
C           2.05051870782026   10.92640559219072   -1.22763420558376
C           2.53747005119210   11.18322205016592   -2.44870251611298
C           2.74628557492987   12.52967602867069   -2.97250308086569
C           2.47837983195608   12.89671540544999   -4.29825758417732
N           1.87583140682697   12.17549747140029   -5.31462551676264
C           0.90715504880856   11.12713762933338   -5.07216736474598
C          -0.51584148393021   11.57143057548048   -5.40288794430447
C           1.91390808757371   12.94699094525440   -6.46259369861359
C           2.48923350074660   14.20496326381689   -6.16673005426704
C           2.86151820303207   14.16813013553530   -4.78191031521347
C           3.45190981935608   15.10578881641089   -3.94657238384913
C           3.65858843574363   14.76594678139050   -2.62460153475673
C           3.31812176178669   13.50399143544199   -2.15646511805264
C           2.56685401540443   15.20446116162726   -7.12535177597841
C           2.04431178623631   14.95261724188496   -8.38028329179931
C           1.51119326156168   13.71055116091259   -8.68584172166076
C           1.48044692896905   12.65841852928907   -7.76637365763855
C           1.07694960847360   11.34792883117484   -8.22869252799025
C           1.74267025454233   10.20841742429699   -7.92534335518275
C           1.40294581330865    8.90051005522123   -8.35748482088943
C           0.19004439741118    8.45489723645104   -8.80772964657192
C          -0.09692008371207    7.13104535231897   -9.23688569218712
C          -1.39933754628324    6.90751126281227   -9.55802995209811
C          -2.23320355730113    8.03627471775793   -9.39539142086013
S          -1.28801035557162    9.40911862524930   -8.85230678746493
C          -3.59442041205496    8.12868884159805   -9.59782646613466
C          -4.47737542222226    7.13377718799460  -10.07478942085062
C          -5.77619821504312    7.53329064407745  -10.13605718464806
C          -6.01131445776586    8.86578403811363   -9.70566214540529
S          -4.47929745955596    9.59582716357625   -9.23958912516822
C          -7.24096981899287    9.46504458918105   -9.64269259774162
C          -7.58567627177704   10.75994202785028   -9.19593546481275
C          -8.89331746512371   11.24220659347679   -9.11607366174534
C          -8.86594452575329   12.56383759700920   -8.60107535771793
C          -9.86716334141186   13.46223776045450   -8.31550515359688
C          -9.49476861253603   14.71351591144878   -7.79109247320422
C         -10.24869722801667   15.80718295459595   -7.39851586296829
C          -9.36970186453401   16.83695464230803   -6.92842541863700
C          -8.07310190710434   16.37347334471695   -7.03424208785734
C          -8.09860428472079   15.04574651326259   -7.56745754567790
C          -7.09917233764888   14.15609001986174   -7.85039929286374
C          -7.47096619179240   12.89592186770997   -8.36929417134609
C          -6.71031745991151   11.80313333087001   -8.73137377348515
C          -9.74961377843982   18.13495399578039   -6.42621245844339
C         -10.99581249833752   18.58276771261651   -6.29736440301869
H           1.65908074366989   -2.15595874891799    1.87934890832626
H           2.81146271943891   -0.97383848590617   -0.04065649525199
H           0.40065146221129   -0.67403469702251    3.50391053934331
H           2.60441353983432    3.00386745478948   -0.50290280338032
H           0.13578745447250    5.77346936731047    2.80195510489288
H           0.26561673186465    3.30615522288670    3.04804062867234
H           2.36758123719411    4.47973612998896   -2.65595077291250
H           2.47872435204679    6.17097202116808   -3.15085368836740
H           0.07370513834725    4.89107694691392   -1.76502617013651
H           0.18163971967217    5.30416262014938   -3.47799417288304
H           0.18222379800614    6.58131555162942   -2.25918273353588
H           4.52464100584159    6.42884631663394   -1.80405418902527
H           4.41174078147868    4.73849154737947   -1.30499890150650
H           4.51824075466097    7.13589011984661    0.58891477689358
H           5.84387651521080    6.01975094925153    0.25242993207688
H           4.39842194285163    5.44784123717132    1.08849176376026
H           2.95201080606450    8.49333237494830   -2.11024556960358
H           0.74167279121526   10.43392981000634    1.00326715874633
H           0.32124797973604    8.26906624903459    2.09392199026065
H           1.72069645065852   11.76070938450117   -0.62037635713531
H           2.84305572372473   10.37535652355941   -3.10126747527943
H           0.95610972305851   10.87718050753348   -4.01158047882003
H           1.15419981259532   10.23392147611746   -5.65486887592075
H          -0.74805974974469   12.50283522832877   -4.89063435356474
H          -1.21745969217290   10.80791410906042   -5.07722067029675
H          -0.64325011177420   11.71820181630904   -6.47200435075479
H           3.74237078844130   16.07302026698807   -4.32706324200807
H           4.11212824029149   15.47531297240630   -1.94844449947671
H           3.54204306206745   13.24420482097984   -1.13225996573813
H           3.01130268062781   16.15862525128525   -6.88718809322115
H           2.06660413379832   15.72095164368908   -9.13872423843992
H           1.14690476988372   13.52203002324548   -9.68556862391955
H           0.27910016565392   11.32348363215524   -8.95852347873141
H           2.65942266279571   10.29123753642736   -7.35261990691691
H           2.18260250478023    8.15162812181751   -8.29031601770581
H           0.67750434676882    6.38554195331951   -9.28817242000270
H          -1.78691764096502    5.96033010958367   -9.88878880046962
H          -4.12982931355949    6.15656892041145  -10.35903667160054
H          -6.58632027690040    6.90975107677613  -10.47251251598324
H          -8.07379603350492    8.84957417297434   -9.96366347760076
H          -9.77959404170012   10.69997299495197   -9.39070979379310
H         -10.90849650008255   13.22368402773908   -8.48123760869981
H         -11.32035844003609   15.87684707722033   -7.43834416400538
H          -7.18252711695675   16.91063838718193   -6.76261100709204
H          -6.05713016710248   14.39148512194213   -7.68456212133491
H          -5.63960405278199   11.74040777218304   -8.67759353473179
H          -8.92114732327518   18.76988817056948   -6.13578400204634
H         -11.85118586373960   17.98767715495356   -6.56769417589230
H         -11.20436248485653   19.56467315618999   -5.90901090069085
