104
 SCF done       -239.558555898703          0.000171748771
C           0.98308208169927   -3.14647309370770    4.10277067784270
C          -0.46262658405846   -3.14558195408769    3.96347984260650
C          -1.12234921667548   -3.63144966053092    2.82877187977251
C          -2.50745969076001   -3.65858637312070    2.74341419933394
C          -3.28061820240016   -3.20639568058288    3.80946225582356
C          -2.65250938510631   -2.74435975537790    4.96297975934449
C          -1.26636711588066   -2.72824775388898    5.02951552387676
F          -0.67574177508240   -2.27995766726790    6.14266937394450
F          -3.38357344725185   -2.32034581819274    5.99553200297710
F          -4.61108912683774   -3.22585216534218    3.72978882213112
F          -3.10138154724654   -4.12629505482483    1.64304271202830
F          -0.41380150778644   -4.11994629441830    1.80566429822185
C           1.87547183576538   -2.80088709770677    3.14660824296410
C           3.31649579739117   -3.01346251421449    3.40254180778438
C           3.79262844340505   -4.23000758147988    3.89444136104616
C           5.15001881923639   -4.46700185796156    4.08043881143126
C           6.07351428956608   -3.46931885467493    3.78552270724326
C           5.62324814925918   -2.23847556157091    3.31694643533055
C           4.26294893959972   -2.02205390951072    3.13521408684445
F           3.86729989646321   -0.82203086197033    2.70467218066791
F           6.49851296523677   -1.27116705202637    3.04029527325966
F           7.37669760520974   -3.69085390103801    3.94944886433870
F           5.56867292550618   -5.65174645736139    4.52902461358519
F           2.93528879621056   -5.22208089227713    4.15453023797957
C           1.54122863790401   -2.15632288526614    1.89883480571079
S           0.27167866049031   -0.97461482386250    1.81901038883103
C           0.65901660452228   -0.63758411682878    0.18262503447929
C           1.70300041916224   -1.36576941810125   -0.29362499479285
C           2.17822480655232   -1.26288127600974   -1.70408102777656
C           2.22925123258327   -2.25432594779633    0.69562248396576
C           3.28627046281874   -3.21140313007039    0.51052963561733
C           4.37586279667255   -3.05979579156065   -0.27968050460195
C           5.38899643369052   -4.04032780391102   -0.39312816846095
C           6.48069074630032   -3.89701280741429   -1.20048425658999
C           7.47978590313883   -4.86732572768667   -1.35505734732839
C           8.52937114212782   -4.76186793330648   -2.23630708756319
C           9.53956088936604   -5.72263358372526   -2.48020835444901
C          10.41888813555953   -5.37473179391344   -3.46118720931920
C          10.15749824114864   -4.11471250139980   -4.04282752922969
S           8.76437763988977   -3.37545565185825   -3.28888663531785
C          10.83388401261102   -3.49921609072054   -5.08000957522804
C          11.90863194270480   -4.00939276645862   -5.84037207029924
C          12.31998201284365   -3.17657401604446   -6.83582058310154
C          11.60470313113652   -1.95470757634643   -6.90963577732226
S          10.38308073703550   -1.90755886748373   -5.65398773089689
C          11.80801760248348   -0.96878050693769   -7.84408582997985
C          11.18081797024311    0.28311036208398   -7.92161029275698
S          10.25499642727430    0.93916668746446   -6.59643516725011
C          10.11884813487101    2.45690519972229   -7.39565384560086
C          10.72946523887106    2.48784508799360   -8.60808203276136
C          10.72693678659355    3.68050009233093   -9.50536142533218
C          11.32078204454083    1.23257467924182   -8.94898926179395
C          11.89616392917737    1.00057758007891  -10.23286273314218
C          11.93046954451510   -0.17722760105226  -10.90540550517684
C          12.41424622214656   -0.27111819135364  -12.23467707044903
C          12.30756003250275   -1.38491588271556  -12.99725270543070
C          12.70569726430660   -1.47223036947972  -14.37529342588222
C          13.12690155388843   -2.82013484219841  -14.83585842300724
C          14.40182839270832   -3.03900940356364  -15.35517428442598
C          14.81474060250099   -4.29542057029945  -15.78592602774794
C          13.93931367109669   -5.37429164862840  -15.70673439366714
C          12.66082890657308   -5.18171840328724  -15.19278140167264
C          12.27077036623786   -3.91744968698461  -14.76291794194221
F          11.03146406587060   -3.76302883568860  -14.28917366162097
F          11.81203220007668   -6.20790124461699  -15.11463305145220
F          14.32257211020101   -6.58198347214804  -16.11812206930079
F          16.04487720286456   -4.46962632630061  -16.27048785885584
F          15.26810651949474   -2.02429762936300  -15.42506799433730
C          12.77106907817523   -0.45962373574445  -15.27564295714821
C          12.26762703515728    0.89375541112303  -15.13600209182286
C          12.97182505315981    1.95112478939109  -15.72849955330019
C          12.53896353374792    3.26808975223373  -15.65862335835132
C          11.35469465799347    3.56982721500917  -14.99240514522852
C          10.61010658118957    2.53674287762586  -14.42888061393906
C          11.05386572130135    1.22519952151610  -14.51798967580335
F          10.27620222287989    0.26363556394352  -14.01165900491482
F           9.46190195091897    2.81244817316859  -13.80174578980249
F          10.93246815872469    4.83240117407248  -14.89990135520978
F          13.25554554452166    4.24442317987756  -16.22003513868777
F          14.11695055539762    1.68506920451438  -16.36650366678759
H           1.34269954837889   -3.43710226808776    5.07971558826147
H           0.07593045835090    0.08907305510386   -0.34871772621729
H           1.39881121439766   -0.83397670727957   -2.32918870938546
H           2.44349223078247   -2.24528967595060   -2.08853855472442
H           3.05385496118808   -0.61735221257169   -1.76796676611600
H           3.19631433919366   -4.12417319809317    1.08646643874084
H           4.52194716680017   -2.14413847901476   -0.83258164088460
H           5.27269455977248   -4.95212105835347    0.17972897502478
H           6.58322883812506   -2.98873147047687   -1.78203903294495
H           7.41460681791986   -5.77319166472502   -0.76651414024461
H           9.57798774155008   -6.64507560764208   -1.92807835855951
H          11.24293092659610   -5.98731509648239   -3.77995102391932
H          12.33757559378429   -4.97544154874895   -5.64400255970930
H          13.11750732520985   -3.39762834043528   -7.52328323435964
H          12.56497836367789   -1.16869412775255   -8.59128434647779
H           9.58038157369299    3.24970013991754   -6.91452161764432
H          10.21664703354614    4.51091878340536   -9.02519909071702
H          10.21550965500416    3.45171314608540  -10.43966950669397
H          11.74598556384325    3.98775286172774   -9.73836582395048
H          12.25340860917988    1.88428753192178  -10.74796401077783
H          11.48321443813081   -1.06329899298759  -10.47888217997459
H          12.87302493943503    0.61680351764408  -12.65118163069633
H          11.93967883344848   -2.29166640620323  -12.53848398857653
H          13.24133481147312   -0.65245803749646  -16.23075177772467
