54
 SCF done       -106.516449623762          0.000551596833
C          -4.30342626750117   -6.99387951457518    3.05422814700198
C          -3.71559502912285   -7.53335122674611    1.92369747632233
C          -2.94422606055029   -6.72751125374217    1.10851205627155
F          -2.37294434325702   -7.27589845339744    0.01868577449028
C          -2.71479808447667   -5.37810155045081    1.38860236868848
C          -3.32425858771221   -4.84299365418145    2.52076951406326
C          -4.09937791168953   -5.65291928052769    3.32877997376797
F          -4.67749707532565   -5.11314484388875    4.41764813295776
C          -1.89933013463725   -4.56375619459769    0.49425757281357
C          -2.18463933966678   -4.47849231093187   -0.94393214771957
C          -1.30864013297916   -3.66763930101916   -1.54989135523350
C          -0.38037157639856   -3.14045906236482   -0.52796252571479
O           0.43634910811204   -2.26361189959316   -0.63396824493227
C          -0.78061643224689   -3.83257873192132    0.76542618507341
C          -0.00870223496681   -3.67258378393676    1.94309235182989
S          -0.66308640966267   -3.75467192613288    3.55716453898759
C           0.88595286762938   -3.44814829597180    4.29608482491283
C           1.86847352076155   -3.30978341183618    3.31334775928025
C           1.36145857790326   -3.43466220806686    1.99475226386005
C           2.23844904904102   -3.46414208081169    0.89134900558160
N           3.02038052226024   -3.56773013702336    0.05985499861955
C           3.23510869190246   -3.08114981465355    3.53942826776584
N           4.35927535372564   -2.89350748273620    3.67817118208439
C           0.96284466672756   -3.37954918677210    5.70348071734960
C           2.11256780877799   -3.18431172112457    6.41234921225980
C           2.19590652785381   -3.05601781350492    7.81195168242619
C           1.04732066045526   -2.85243675498925    8.70088097973700
C           1.45403242662664   -2.65233132306735    9.95948392216644
C           2.92707151766432   -2.72177543418015   10.00348602760602
O           3.62838615585854   -2.63601036626942   10.98274543399654
C           3.35669935398239   -2.98335690594924    8.57898445715047
C           4.68645430187278   -3.22206360804454    8.19545718503600
S           5.05531173857287   -4.15953328701279    6.74418940875593
C           6.74475988349315   -4.04849495002887    6.98799424968289
C           7.02764380419879   -3.32087447705229    8.10399712189781
C           5.88454700509623   -2.85076051984596    8.81730402068772
C           6.26418851005956   -2.08055994506784    9.94358282707722
C           7.61028885791978   -1.98231059033057   10.09676424180380
C           8.35054150490883   -1.26313270912290   11.16179481839320
S           8.51384890469505   -2.82939848734796    8.85422258825895
H          -4.91335068177721   -7.59361676879713    3.70972598685045
H          -3.84886359973828   -8.57187949527642    1.66621190482301
H          -3.22425445149232   -3.79487396122694    2.75272948747351
H          -3.00007872530133   -5.01217132968187   -1.39805986269746
H          -1.26175978037421   -3.38591846754006   -2.58340596837543
H           0.02334031039389   -3.51432323684303    6.22146025279524
H           3.03738663921049   -3.10093280473695    5.86125376507570
H           0.02977787061684   -2.84575329595709    8.35446679997133
H           0.85668764096639   -2.46070957366981   10.83025840955005
H           7.41928972546681   -4.50881530184064    6.29458000426988
H           5.56497113626864   -1.63462974325825   10.62493065041569
H           9.00025291975045   -1.94915000398678   11.70480662570056
H           7.65270824262172   -0.80896816694052   11.86038266815153
H           8.98002105357440   -0.48477335139591   10.73030226098881
