72
 SCF done       -133.834364433963          0.000468015454
C           2.59657113237168    0.36613974236618    0.62256362326462
S           1.89694354998868   -0.72566173455796   -0.50176466519173
C           2.01142655193261   -2.06714322024993    0.62026195351635
C           2.57857844898464   -1.62503749393558    1.80029185610362
C           2.91455278312598   -0.24015523181952    1.80844697667862
C           3.49615896881970    0.15339906981841    3.05263145911746
C           3.59725212955107   -0.86480502952974    3.93179497624831
C           4.13689560677304   -0.84925031523134    5.31274147536649
S           2.98174555373165   -2.39521495007644    3.29311748617851
C           1.57153269492753   -3.37558240199278    0.31903674108895
S           1.68580669654399   -4.62508285981443    1.52321166714020
C           0.99674674315582   -5.81935628176767    0.45171865336945
C           0.69850635490645   -5.25368485466354   -0.78497174605538
C           1.02121374760369   -3.87284543716070   -0.85930822605138
C           0.80014025267047   -3.11228145990418   -2.01863625064440
N           0.61178587598257   -2.51556209756421   -2.98018336974594
C           0.13289983277204   -5.94451335710804   -1.86779654177053
N          -0.32672043153024   -6.49439239502684   -2.76429250554358
C           0.84202928601608   -7.13478001798664    0.93809449953762
C           0.40149455210823   -8.22076790654157    0.24606957467762
C           0.31828532438036   -9.50000854339779    0.82851712547192
S           0.66798126742217   -9.76384926790230    2.51659772132208
C           0.45293529966476  -11.49576270587502    2.40186137045952
C           0.08208579524262  -11.81249955717691    1.09732698759495
C           0.01421410537948  -10.71147324286541    0.20849013063561
C          -0.32553775738673  -11.10018061761867   -1.11484678967818
C          -0.50748030318511  -12.43567556692137   -1.23771424334808
C          -0.86727468745983  -13.21000119957788   -2.45013664537713
S          -0.26805779622841  -13.29260997630947    0.28113536225604
C           0.60543726147796  -12.33689584925598    3.51814957266127
C           0.04243989794098  -13.69557383130319    3.56768940162759
C           0.12072531510976  -14.18306855195721    4.80879488260211
C           0.75907525135441  -13.16263407730601    5.68395838691882
O           0.95525739793230  -13.23045256646180    6.87315039751779
C           1.11267039628681  -12.03137552885266    4.77514498853738
C           1.84124913850844  -10.93020979858971    5.26160205259195
C           2.78519800330452  -10.20092809517033    4.58367607604993
C           3.41829659094034   -8.98514180324846    5.03370130840980
C           2.92524948658233   -8.12195785834608    5.97873043703716
C           1.71926374861357   -8.32370353814184    6.68217007666470
N           0.73166626279351   -8.40228573277283    7.26246902547740
C           3.51432784682980   -6.88234041584980    6.29564700967749
N           3.94383094416252   -5.85541633857155    6.58005809016000
C           4.58099172024202   -8.74655055889800    4.18129617091275
C           4.60284149477340   -9.72348982893236    3.17106229059426
C           3.46256388041228  -10.64359980579320    3.34204300664126
O           3.17856360685042  -11.58628153472020    2.62848322055607
C           5.59339579070328   -9.73191125819340    2.20883520455686
C           6.57268554878641   -8.75179738491421    2.26273733303449
C           6.57410510501239   -7.78299873286712    3.26321486189938
C           5.56836127227636   -7.77989268895050    4.22981786477345
C           7.66485043165672   -6.76084950526937    3.32483045305784
H           2.73202839062908    1.39149647444385    0.34255559499625
H           3.81733359241351    1.15745157376625    3.26157640346988
H           4.51029419620641    0.14097421637855    5.56065505392306
H           4.94538301037191   -1.57201220072886    5.41428169143201
H           3.36108769893805   -1.12526695212352    6.02617666315565
H           1.12720689754926   -7.27504015640532    1.97427248727425
H           0.12551046284223   -8.13863607029303   -0.79481260994299
H          -0.42662556419472  -10.40789884014138   -1.93076827224313
H          -1.01209334114930  -12.53932431959678   -3.29310619951870
H          -1.78379442327011  -13.77531682256926   -2.28440461672277
H          -0.07948893872270  -13.92188265787141   -2.69571678407935
H          -0.38332775599879  -14.18178582632871    2.70879984204067
H          -0.20573214764427  -15.14042549321639    5.16831309576257
H           1.70240506463322  -10.73328307243385    6.32005397929682
H           5.59357982764657  -10.48647798521157    1.43714822426251
H           7.35482191529564   -8.73825960220945    1.51750080679516
H           5.58056550794559   -7.03111034923601    5.00596346645503
H           8.04474813998482   -6.53386956872549    2.33159817473244
H           8.49314686820370   -7.14393779006980    3.92192749718475
H           7.31150262779917   -5.84473036270078    3.79155473339764
