69
 SCF done       -141.182371901450          0.000405377165
C           1.88441101722971   -4.30039779861043    4.24135023170960
S           1.90297703746412   -3.36472592852674    2.80034954777689
C           1.16083092284328   -4.64000339024494    1.87652583651896
C           0.92677069641173   -5.72359989896925    2.69475998303207
C           1.33731634924448   -5.54002009736908    4.04597615992831
C           1.07045902393692   -6.70142965193870    4.83542088371611
C           0.49652984809875   -7.69645832137913    4.12842249111197
C           0.08128974429250   -9.04114393469587    4.60238486654394
S           0.23493676252165   -7.28320047037040    2.42809856161153
C           0.84999646539319   -4.58424267481260    0.49110221245299
O           0.27620632089971   -5.68152730669293   -0.03721327343262
C           0.06173037029026   -5.46289000471835   -1.35988649811870
C           0.50454941935900   -4.19842374606513   -1.69098376467683
C           1.00992917615290   -3.62982084861388   -0.50500238791468
C           1.59265751864065   -2.27250069268505   -0.37057093034935
F           2.87421734304773   -2.28864616691176    0.04868520829202
F           1.58615484066136   -1.60420552689436   -1.53095552528103
F           0.92729544705044   -1.50059287729717    0.51311903182972
C          -0.54002047142256   -6.48068567154663   -2.14843729021955
C          -0.95352532912531   -7.65826458975923   -1.62086102574621
C          -1.55456635583522   -8.71225573481067   -2.34319008009634
S          -1.78976702826343   -8.66174215019132   -4.07533078163376
C          -2.52953623567038  -10.23688310776528   -4.10534054697015
C          -2.58484268856754  -10.75017651393646   -2.82363605039010
C          -2.03745722138716   -9.90961113112886   -1.82540795798205
C          -2.12168618197597  -10.50260062273291   -0.53403032014952
C          -2.70228732958431  -11.72402636250087   -0.55335171117643
C          -2.96044904726489  -12.63447721930535    0.59106785824955
S          -3.18847356985276  -12.23282834803217   -2.17180374242112
C          -2.99776525638163  -10.89495602058559   -5.26994466772022
O          -3.57313273071992  -12.10205347668220   -5.09516353929929
C          -3.94541933637813  -12.58176376042917   -6.30845851121316
C          -3.60459249376337  -11.66862234834807   -7.28614013693724
C          -2.99699898380141  -10.58437163085509   -6.62515781978170
C          -2.46124262450157   -9.36401617699706   -7.27556731478104
F          -3.06252786799412   -8.23291998631884   -6.85408615171387
F          -1.14317398877631   -9.18409304613510   -7.05378246224988
F          -2.61527783476847   -9.39565441863013   -8.60600094682708
C          -4.58216009273931  -13.84927915211613   -6.40396170739185
C          -4.85652490812150  -14.61455692919458   -5.32190647446617
C          -5.48691167406236  -15.88031494905830   -5.35139588051678
S          -5.98701673437176  -16.66232893124308   -6.83600917528173
C          -6.60818278594821  -18.03544944210904   -6.00265580008660
C          -6.44150246206534  -17.89984338188474   -4.66026903549858
C          -5.80602635363611  -16.68385187175961   -4.26819345920224
C          -5.66158462310475  -16.59461068785965   -2.85627936912238
C          -6.15486703999055  -17.67244972833624   -2.20441466259704
C          -6.18205505265711  -17.92544002213691   -0.74181996773707
S          -6.83728153286537  -18.88823827023715   -3.28421501959099
H           2.27831018908175   -3.88096711284377    5.14490912471284
H           1.30512800597249   -6.77070423484428    5.88205604031013
H           0.29636178928339   -9.14921990802979    5.66237047380102
H           0.61178338278730   -9.81840068720688    4.05269042655455
H          -0.98621877376986   -9.18867236960741    4.44096429449945
H           0.47259385878239   -3.73334227426224   -2.65427975303590
H          -0.65944795259131   -6.27078369107285   -3.20081506788974
H          -0.82733547260994   -7.82587884860972   -0.55937543071273
H          -1.76138313677285  -10.03003115420595    0.36185261453082
H          -2.59692839113920  -12.18926832564557    1.51380597061978
H          -2.46044432902088  -13.59060975463105    0.43837323504359
H          -4.02810132795948  -12.82972719344762    0.68981470125044
H          -3.76640064441043  -11.75937696212553   -8.34008909411603
H          -4.84435685225282  -14.18002014620919   -7.39797255824826
H          -4.58239394218545  -14.24843632210432   -4.34127589460539
H          -7.04983224993810  -18.84079995056434   -6.55288783332249
H          -5.20839018580076  -15.75713343452276   -2.35679324194733
H          -5.73255209367362  -17.09167931159166   -0.20806993187650
H          -5.63478454467666  -18.83693100104652   -0.50220467656816
H          -7.20767979705448  -18.05597229801000   -0.39703228320876
