69
 SCF done       -129.812698894616          0.000463333593
C           0.34319251079677   -0.42491820988739    1.38253543314519
S          -0.87725697980594   -1.61415974144628    1.62361425891088
C          -0.49481528491865   -2.43118776453173    0.12524456976924
C           0.54392658690526   -1.76708014810951   -0.49092892058497
C           1.02413289598902   -0.62519624676271    0.21418523682201
C           2.09591215084916    0.01468115198357   -0.48149312241102
C           2.41306689550759   -0.59684015593832   -1.64022727058888
C           3.45829203756186   -0.22561184549409   -2.62656773989083
S           1.41305375270853   -2.01639144614589   -1.97076021428528
C          -1.17071853693279   -3.59039082734047   -0.32972822847081
C          -2.24699090711947   -4.28091859865443    0.19837684572816
C          -2.61571953889596   -5.41758044432353   -0.56180084328748
S          -3.93490726178061   -6.51965614955100   -0.19028831954544
C          -4.24463995859597   -6.13587257858960    1.56608495235956
C          -4.52202465495245   -4.66501371463159    1.75623045851470
S          -2.97681685857936   -3.70212193739750    1.68981702111283
C          -1.84335674995952   -5.59930480468590   -1.70119024413285
S          -0.62085838056932   -4.34764431515983   -1.79627601907839
C          -1.91930868303164   -6.62615544784313   -2.68607195956802
S          -3.02424389512147   -7.96484280105508   -2.50628825464614
C          -2.47755104898572   -8.71683802545328   -3.97351515127789
C          -1.48322850463614   -7.95475044713185   -4.58781244725021
C          -1.18528472778745   -6.77507033110404   -3.85665331855627
O          -0.25335853133207   -5.89513409236931   -4.31921881558189
C          -0.83303726364280   -8.36369174516421   -5.85667375679188
O          -1.10996797763826   -9.37741636108209   -6.44961795219297
O           0.10645544057255   -7.54587601485138   -6.34104771627984
C          -3.02263244528010   -9.94779969260501   -4.39783699514609
C          -4.00956604248299  -10.60856252969901   -3.74090728903561
C          -4.54762526970252  -11.84293463360769   -4.16119061121307
C          -5.56082270251104  -12.57035258473545   -3.54881893687514
C          -5.85495382627306  -13.78092569421234   -4.20531660402472
S          -7.05838137130488  -14.96487950736808   -3.71186085289884
C          -7.32903046088771  -14.47054866997863   -1.97654586218249
C          -7.73395770440909  -13.01841595960642   -1.88231744184563
S          -6.29286339394117  -11.92373314457317   -2.08651622487278
C          -5.07947914993843  -13.98344420564390   -5.34383252503113
S          -3.97141481690427  -12.66099540935471   -5.58347970052487
C          -5.08680583750957  -15.06607252085570   -6.25596460638933
S          -6.25203703878457  -16.36769959895349   -6.14416202147071
C          -5.59753625690241  -17.18753452546047   -7.50852835743187
C          -4.54253711648423  -16.50009688962393   -8.01923516018856
C          -4.23392256293160  -15.28804835322978   -7.33139841388914
C          -3.12197721658351  -14.62506463799987   -7.92222132249670
C          -2.61279238682933  -15.28365497679895   -8.98872529372231
C          -1.46190595018952  -14.88858378912101   -9.83783104964347
S          -3.46607904061468  -16.78104196746091   -9.35456216443904
H           0.47699971296544    0.34601097374272    2.11357224044232
H           2.59530723813131    0.89261936899655   -0.11344712256046
H           4.01621807284231    0.63864681158937   -2.27496724916713
H           3.00538684920038    0.01285607236768   -3.58874953054025
H           4.14735510411591   -1.05507591455998   -2.78160077184476
H          -3.38884940900269   -6.46176779581394    2.15771935287154
H          -5.11542458763841   -6.73997038767620    1.82039029919717
H          -4.92401341634974   -4.45931520612594    2.74842384954294
H          -5.20930977937812   -4.28851460153792    0.99827367914990
H          -0.19282663592180   -5.11064717668496   -3.76200228136930
H           0.23851936424550   -6.76590698601319   -5.77521427543161
H          -2.60508864839660  -10.36017136752052   -5.30602634549871
H          -4.43090521446797  -10.18988284443123   -2.83400804321077
H          -6.42164926527611  -14.67018166609509   -1.40572243834137
H          -8.12883017614525  -15.12535227657181   -1.63084968030692
H          -8.12317439997665  -12.77911542658319   -0.89246376297493
H          -8.47932432465515  -12.76589514996810   -2.63724392393727
H          -6.02516729013541  -18.11357292698796   -7.83309150293487
H          -2.71578603489879  -13.69540649613662   -7.56948810054492
H          -1.04836676181752  -13.94541220521818   -9.48994087731153
H          -1.77396953212963  -14.77852644784500  -10.87624877753149
H          -0.68443680146166  -15.65184601731341   -9.80536178632337
