69
 SCF done       -133.115932018425          0.000545206996
C          -4.33123191196922   -0.66770709250895   -7.50350380698144
N          -3.70402508077991   -0.85319982953178   -6.37423448144331
N          -3.49431985796095   -2.03719148439976   -5.86053300655494
C          -3.90001039874270   -3.15764161792196   -6.44492749042127
C          -4.59696053851566   -3.07088213290448   -7.68799639778031
C          -4.82181129915223   -1.76836861214829   -8.23758157237179
N          -5.48147788017082   -1.82086405574785   -9.39396859325979
S          -5.78296580683933   -3.36076050458384   -9.74416389836966
N          -5.09370950111788   -4.03651870632012   -8.45069384546955
C          -3.63877861223493   -4.41286902889425   -5.82846450443729
C          -2.98517434556308   -4.67774818851665   -4.61632750887915
C          -2.43502931721491   -3.74714668550801   -3.71961346951165
C          -1.84474456374924   -4.21024789525043   -2.57145302555531
C          -1.77684164415582   -5.57653629465577   -2.27746563624924
C          -2.29966507813973   -6.54096312099237   -3.12180859934344
C          -2.92162001447405   -6.08246355417513   -4.32897552462737
C          -3.52910219888445   -6.82841092796018   -5.31773924808264
S          -4.16219808311219   -5.87903951973687   -6.58104305811363
C          -2.21907130862125   -7.94783514763050   -2.84552995122234
C          -1.98555280206285   -8.48931397715246   -1.62566293772446
C          -1.88273944045696   -9.86900338080333   -1.31924927936595
S          -2.19991455007844  -10.35494423988105    0.31524673994996
C          -2.02017869340372  -12.04790639968446   -0.02586124886576
C          -1.68498061832853  -12.22616910889688   -1.38115055511808
C          -1.59204452150056  -10.99425077155620   -2.10370291879676
C          -1.16666395309671  -11.01485608236208   -3.44485962421337
C          -0.92804445802788  -12.20822871018973   -4.06928368942838
S          -0.37763016734845  -12.28144483436151   -5.75817039952122
C          -1.11666532425935  -13.44098431188196   -3.38716374353684
O          -0.93452396108518  -14.63172166796814   -4.00196111319335
C          -1.47377114826180  -13.43710132714926   -2.06253551183861
C          -2.14503463885154  -13.01163330959355    1.00227627525112
C          -2.78663979339992  -12.90099638312227    2.25002558651244
C          -3.57316102442653  -11.84001190251367    2.72865361951001
C          -4.13170206972411  -11.92066539398334    3.97808786076145
C          -3.94089435091625  -13.04100754466429    4.79285836053702
C          -3.20698109125575  -14.13553588187376    4.37432160378501
C          -2.62089242518041  -14.07445846881126    3.06606431273354
C          -1.87213295033883  -15.03902708924326    2.43295366280744
S          -1.37144698125776  -14.56215607208910    0.87572629121675
C          -3.02623184642510  -15.30975562709468    5.18168031924364
C          -3.45756238111290  -15.49587225585973    6.44656365255841
C          -3.21985275566330  -16.71971461857513    7.15913609195347
N          -2.56588561597633  -17.71165216396420    6.57828975361848
N          -2.32118861024498  -18.85032021700681    7.17679468010529
C          -2.70147295675379  -19.10281422921891    8.39950731078213
C          -3.40882871403567  -18.13624345298733    9.14516666298016
C          -3.68213324568457  -16.88756589884392    8.49797917497096
N          -4.35203189906208  -16.04845268611751    9.28201986950476
S          -4.60872589290022  -16.77106922802187   10.69841682854702
N          -3.88801536328143  -18.17421327162381   10.38815163933916
H          -4.45264792018018    0.34989801396567   -7.83984968064580
H          -2.49074399090569   -2.69843935894875   -3.95800399764743
H          -1.41249912105216   -3.50830562271331   -1.87388818292940
H          -1.27677178993418   -5.88221678886245   -1.37131971430618
H          -3.65035590113074   -7.89262596596068   -5.36760851395057
H          -2.41507609509739   -8.60586238827305   -3.67772785855782
H          -1.94161096667926   -7.83545188689118   -0.76420105085913
H          -0.99759859153747  -10.08589697517042   -3.96547234405670
H          -0.29671417084386  -10.96700120390908   -5.93123353993696
H          -0.66264406996840  -14.50464953702447   -4.92009278733844
H          -1.59106323910447  -14.38836860644194   -1.57360318961787
H          -3.75226567614508  -10.97294609685972    2.11446300461211
H          -4.73791381447201  -11.10553036145523    4.34368829822271
H          -4.40139497509330  -13.04982151918742    5.76792589580864
H          -1.58488562417008  -16.00886583803153    2.78507943944211
H          -2.48781625581769  -16.13549703179334    4.74032255455739
H          -3.99925694535624  -14.74436733827103    7.00103096782783
H          -2.45193916675174  -20.07129658770458    8.80428504299266
