73
 SCF done       -136.777180579441          0.000700273396
C          -7.85219979083469   -3.67351243965148   -8.16273336608308
N          -7.52047064033655   -3.50987553348851   -6.91178393067370
N          -6.89720656789400   -4.42367775225906   -6.21364089735133
C          -6.54563039462396   -5.59876029700085   -6.71734761254919
C          -6.85852382771497   -5.88397841921528   -8.08067997821783
C          -7.54244981869527   -4.87625772635569   -8.83274395501748
N          -7.77871721280135   -5.26274852435714  -10.08583492774803
S          -7.19451579728339   -6.74593241087125  -10.28539232407099
N          -6.61390871711928   -6.97381405813367   -8.79781528013205
C          -5.87173354359744   -6.54887544315960   -5.89805580403124
C          -5.50173597535769   -6.44201725691927   -4.54988274746526
C          -5.70931291144153   -5.35028928068968   -3.68943552963590
C          -5.26757636220287   -5.43893084493938   -2.39455198690080
C          -4.62308207455476   -6.58500320458868   -1.91365761171493
C          -4.39299494902227   -7.69180348010814   -2.71183974271103
C          -4.84077602073867   -7.62268221510782   -4.07207808133326
C          -4.72649282341522   -8.57392588352925   -5.06563739447176
S          -5.40033538234246   -8.07866758788414   -6.54701046712329
C          -3.74981806882430   -8.88361186622203   -2.23673587748675
C          -3.20128195458785   -9.07946402789292   -1.01682489174496
C          -2.59239483922332  -10.29960857306738   -0.62442233570480
S          -2.50579387642072  -11.69410635799890   -1.66334998609277
C          -1.66255744520884  -12.63720169520002   -0.46117661577061
C          -1.46817883255481  -11.88990904961522    0.69648400662269
C          -1.99427569898017  -10.57242053710666    0.59822520327179
C          -1.92287596408725   -9.62705182540649    1.63439987115939
N          -1.87968270584721   -8.84372404562601    2.47128302109672
C          -0.84080831050296  -12.33971268837612    1.86777629077421
N          -0.33484525382432  -12.66806067363926    2.84463878929928
C          -1.30296967866855  -13.96707373985349   -0.78961465020718
C          -0.55140361043676  -14.79076887909310   -0.01369271236663
C          -0.17477436255415  -16.11883997436022   -0.32158630021332
C          -0.67800031881855  -17.06099613688065   -1.23394918298398
C          -1.85020323278060  -16.99071963517298   -2.00817673693920
C          -2.17802347276678  -18.03830167677851   -2.82817378760246
C          -1.37281843227934  -19.17875604136722   -2.92249855070779
C          -0.23326791935318  -19.33422787385084   -2.15688199253199
C           0.11067479798616  -18.26248921458901   -1.26949991125384
C           1.14883415133131  -18.22266637468261   -0.36217260828155
S           1.19575657538912  -16.77225655825945    0.52332443833721
C           0.61326548056121  -20.49436382500350   -2.23903638046907
C           0.26219020426387  -21.68464944061901   -2.77477436455999
C           1.10092362147427  -22.82627015033448   -2.89799183449359
S           0.34374914110172  -24.38601994230865   -3.01793679462620
C           1.83485416008678  -25.20755717053719   -3.04077383299458
C           2.90524739173225  -24.34101102133829   -2.98942008118529
C           2.49269957073448  -22.96684720493206   -2.92270556142949
C           3.48231398463673  -21.96502644203066   -2.96592544813042
C           4.80364485317445  -22.31357374336610   -3.00166924450494
S           6.08262839499968  -21.08023974166592   -3.06923399669847
C           5.21916314373413  -23.67971079417181   -2.99979285682518
O           6.52949058461875  -24.02042832062948   -3.01369859522253
C           4.27796878954532  -24.67043566680074   -3.00975263473187
H          -8.36513429836092   -2.85863524559360   -8.64865255268954
H          -6.20905179103830   -4.47550043818092   -4.07068373974184
H          -5.41961853000500   -4.60947982723088   -1.72047091022402
H          -4.30731863483082   -6.59827307071123   -0.88221428406026
H          -4.27767419143046   -9.54592321352214   -5.00989584912788
H          -3.70336862841880   -9.70907872031147   -2.93530142220554
H          -3.19221023496554   -8.30229953557662   -0.26525322378553
H          -1.63505155049498  -14.29804779567890   -1.76238865790642
H          -0.13989885787962  -14.39925344278937    0.90717974660720
H          -2.50347233836727  -16.13782133914757   -1.93384939923839
H          -3.07757256112907  -17.98707527324420   -3.42366991943028
H          -1.65718715322216  -19.95256817323934   -3.61823309741600
H           1.88396873873812  -18.97483018475604   -0.15599101761751
H           1.59367771048201  -20.39405209642982   -1.80046055661139
H          -0.76094569708519  -21.84101912772972   -3.09076197611160
H           1.85772384736838  -26.27736245991687   -3.08853473930818
H           3.19470257751785  -20.92626895635872   -3.00733164621081
H           5.26226896596489  -20.03610161654544   -3.10538940021735
H           7.08753192397362  -23.23222824134779   -3.01932378425367
H           4.59279264545069  -25.70014797470202   -3.04238578801065
