70
 SCF done       -130.438672363256          0.000879613465
C          -5.20731159902200   -1.28524698766303   -6.90110152264994
N          -5.46581236809630   -1.60474928201124   -5.66264077913217
N          -5.02005980011200   -2.69729492486292   -5.09887134006377
C          -4.26451480328322   -3.58109073312108   -5.73996876941189
C          -3.91898170679362   -3.32915550683880   -7.10282514224369
C          -4.41255409446004   -2.12858720631582   -7.70648225246168
N          -4.02233398123282   -2.00826754776840   -8.97420202674893
S          -3.12197514707779   -3.28650843832112   -9.35747848445219
N          -3.18483752122481   -4.05245026516286   -7.93777610324719
C          -3.81591246574933   -4.75136534593782   -5.06890923108772
C          -4.04817662625464   -5.15101343659579   -3.74427663160136
C          -4.78744225935420   -4.47052235765407   -2.76396571521314
C          -4.89695367559019   -5.03196460731147   -1.51658675053100
C          -4.29042215907039   -6.25164309794243   -1.20167536896802
C          -3.54432099173413   -6.96881589640783   -2.12343478159228
C          -3.42277497256869   -6.40589842342686   -3.43717816015313
C          -2.74256618189105   -6.91079404439060   -4.52589832029714
S          -2.84242613403997   -5.91416966015272   -5.90121487157341
C          -2.90805966297501   -8.21622893984010   -1.82396692074276
C          -2.79251350388890   -8.79478183430518   -0.60323986366461
C          -2.13687328552472  -10.02285093278623   -0.37359987333031
S          -1.43617371601607  -10.99496885264663   -1.65468947427212
C          -0.84451175568846  -12.23902031296904   -0.57631548587109
C          -1.17331996544108  -11.90101123409303    0.73668384131954
C          -1.89378016031265  -10.67338803350003    0.82735170519838
N          -2.09598014097633  -10.44700596428929    2.14941050561736
N          -1.53866928326815  -11.41554548126426    2.89825629728306
C          -0.98646763414390  -12.28418503109843    2.09288945887575
C          -0.11500687222945  -13.32743244128963   -1.10110386083978
C           0.07783429483682  -14.61692746807180   -0.58595015249007
C          -0.54158963648011  -15.20017809856068    0.53280881340559
C          -0.21976883102461  -16.48542463573104    0.87897605600907
C           0.70810819823588  -17.23232072542777    0.14181743881460
C           1.30737285877604  -16.73925436305315   -1.00106925212655
C           0.96557955237887  -15.40386215737475   -1.39723466500702
C           1.39399602552780  -14.71492414786391   -2.50941384651088
S           0.74582612450079  -13.14066445066878   -2.59883428059788
C           2.21508655909269  -17.50982540645855   -1.80516520353443
C           2.88151641780038  -18.61934801314744   -1.41460631312690
C           3.75407019193707  -19.36091420883452   -2.25034917045836
S           3.95612341941081  -18.97963774047068   -3.93350583117313
C           5.06198431629257  -20.25535605625182   -4.17790488167879
C           5.29958703778305  -20.96843074993522   -3.02389907548828
C           4.55042926913817  -20.45979122306374   -1.91081896918734
C           4.69334283873019  -21.07587525533436   -0.65325549881358
C           5.53513022172414  -22.14344287200798   -0.51338177709326
S           5.75546721137118  -22.95176287834784    1.05515426177140
C           6.27953872475082  -22.65802249656187   -1.61900153056981
O           7.11146610876940  -23.71828170759938   -1.47692611410228
C           6.15798437229784  -22.07605538162586   -2.84942537224109
H          -5.62442015839885   -0.36167997807547   -7.27061231118947
H          -5.24855936652240   -3.53071772499736   -3.01673170880821
H          -5.46660671982163   -4.52404733835911   -0.75226170901991
H          -4.42321934467970   -6.64483922080468   -0.20551460908799
H          -2.18190748946655   -7.82201034586527   -4.59540171156212
H          -2.45943315393662   -8.74160026431200   -2.65613330038693
H          -3.19451841458212   -8.31568840423469    0.27934454685625
H          -2.56276505595796   -9.67650524665860    2.59570564877927
H          -0.46052096513511  -13.12648745545374    2.49326099756011
H          -1.28246033743787  -14.64650046073656    1.08473116648031
H          -0.69720039926031  -16.94466844586242    1.73197234729873
H           0.91858007436944  -18.24244755159416    0.45794558834720
H           2.05698198838376  -15.03872292732466   -3.28599983599483
H           2.38758801964824  -17.15310863008449   -2.81149318641356
H           2.78360207122006  -18.98253009744584   -0.40119595856290
H           5.48264331215526  -20.41595429760825   -5.14992820330240
H           4.14177412238287  -20.69895098029226    0.19541417275853
H           4.93677997206848  -22.15545677658575    1.73300375775310
H           7.11078642749004  -24.03206446390897   -0.56359719691398
H           6.72235260958913  -22.46845253339412   -3.67898320857503
