69
 SCF done       -132.076521987980          0.000595792956
C           1.23558237499887   -2.91491918650235   -1.39681876944954
C           1.18188419579620   -1.93437748522397   -2.34325627161412
C           0.71591904463050   -0.63153057596155   -2.05358590292067
C           0.28097081372659   -0.25198933092991   -0.80820427591130
C           0.32985595181577   -1.24175660540659    0.20641297796727
C           0.81074518132666   -2.57091980651404   -0.09910771204325
N           0.75898325022823   -3.27183212098322    1.01880276928323
O           0.28764014965980   -2.44337384271322    1.94816424273259
N           0.02511799833335   -1.22613158098445    1.48881912013474
C          -0.21872897696582    1.09868013847695   -0.54772444564937
N          -0.90282563184821    1.29155278897738    0.57641976416368
C          -1.36001670171064    2.51226366452740    0.79558702597051
C          -1.14834823619384    3.55362296648105   -0.08901469204115
C          -0.41275228528670    3.26091013255797   -1.24965978793888
N           0.04302498265968    2.02168890838393   -1.46294386413321
C          -0.12654791827326    4.27337812922085   -2.23085467788521
C           0.63399503481836    4.04117417095311   -3.32978170692177
C           0.92740854694905    5.02638341249958   -4.29444359579143
C           1.70948503516505    4.83115733889315   -5.40173879679465
C           2.38904544592032    3.66129987149466   -5.83499809918907
C           3.09530908571534    3.81646845217169   -6.98518284803508
C           3.02212707531804    5.11786694536175   -7.53929856315421
S           2.01026685196868    6.13907415973216   -6.53781630942138
C           3.63645301925209    5.58266579428046   -8.68063744654728
C           4.48740311202502    4.87861698334255   -9.56641290050813
C           4.96064571445366    5.62077643082236  -10.60147908814456
C           4.51059235526124    6.96700175341379  -10.60362549356404
S           3.44429427749695    7.23893582214363   -9.21969048190522
C           4.82195797553847    7.94437720110461  -11.49911595511166
N           4.32143065045821    9.20474624993947  -11.40932253708498
C           4.59777259257361   10.24999128491688  -12.21909078040885
S           5.74344476333560   10.09940493396140  -13.51309218190108
C           5.47050516594932   11.76694313595667  -13.92221248604599
N           6.18955276442491   12.27709571824714  -15.00207473634383
O           6.01495639799356   13.44315176422812  -15.30783282769450
O           6.94946670620758   11.50125640722126  -15.56417700468623
C           4.55713767473483   12.38680536643931  -13.11279398266645
C           4.03419352541387   11.53557332884870  -12.12162141335067
C           3.04759494834111   11.89448794430829  -11.14071529613687
C           2.50287130840997   13.11894702974685  -11.00725742677900
C           1.50277792619313   13.49224394139390  -10.04101405249828
C           0.89484430571497   12.66394589932720   -9.11940741264883
C          -0.08501437722159   13.11234809408062   -8.20769884874727
C          -0.51693356543220   14.40753199617375   -8.15922964383378
C           0.06754047831970   15.30117957306540   -9.07584298024990
C           1.06872647051291   14.84718583753368  -10.00989236544517
N           1.42971012613660   15.88879027555227  -10.73305501519374
O           0.71138670091474   16.91604682937978  -10.28861936181689
N          -0.11227838678402   16.59133080671063   -9.29520322935353
H           1.58352690544204   -3.91297153035574   -1.60510888259844
H           1.49797019442329   -2.14892620967382   -3.35346095229645
H           0.68729487290016    0.10348559414004   -2.84303816744926
H          -1.91544230710710    2.64683001860905    1.71510895438407
H          -1.52412632196959    4.54665644821269    0.09786953223850
H          -0.54279115219436    5.25513197476348   -2.05038545977525
H           1.03353751050869    3.04577945828933   -3.45553167569739
H           0.50522118007747    6.01146859901541   -4.14450385758071
H           2.33847748984900    2.74191769484581   -5.28078945394625
H           3.66882311388042    3.03572650617157   -7.45198563182160
H           4.72654492526306    3.84270292191864   -9.40857768077885
H           5.61963457485134    5.25339988718672  -11.36725422521935
H           5.48857407594322    7.74367065206934  -12.32396432766522
H           3.68041448519633    9.37272683068928  -10.64094838269223
H           4.28633459222768   13.41734885960356  -13.24840042286096
H           2.72743198573373   11.10589527109950  -10.47241881279057
H           2.81094538756782   13.92628289419557  -11.65497605586095
H           1.16450804179666   11.61964618789898   -9.08039684828015
H          -0.50483442427304   12.38806904210063   -7.52506213332404
H          -1.26496902912969   14.75004795255440   -7.46469614867786
