110
 SCF done       -186.542236028800          0.000302655259
C           0.12818774775767    1.65831743719279   -0.36446997142839
C          -1.17251568102238    1.27451736417018   -0.59381583969494
N          -2.16825255172171    2.24604567694088   -0.87854371654556
O          -1.85173179959722    3.41485103163047   -0.75311260109982
O          -3.26777888151134    1.87320789655412   -1.23752439742082
C          -1.37569157393286   -0.13522464795854   -0.52099427159066
C          -2.71106693016040   -0.78328123375790   -0.60739660204774
C          -0.19073839204128   -0.78392959865530   -0.25674865138963
S           1.13265756893726    0.33846374484368   -0.03404896925227
C           0.09569805661685   -2.19286202334894   -0.15754758593289
C           1.09608785942792   -2.65673238560558    0.71732167872734
C           1.42162730081623   -4.05805280226663    0.85097057800085
N           2.43887848240973   -4.42011872964253    1.65148673417626
C           3.08292708691147   -3.50866440896491    2.33675213572046
C           2.70867181573884   -2.12635900341481    2.26069481652892
N           1.74949081462274   -1.74393848402728    1.45679327603007
C           3.38139818214411   -1.16200980597757    3.04991709866272
N           3.94715962467124   -0.41251419311215    3.70644909282058
C           4.16131227966320   -3.90595532815151    3.16480544467138
N           5.03167708110711   -4.19648843746599    3.85122886671015
C           0.74932126087738   -5.05409549452073    0.11274281538104
C          -0.19860889036442   -4.58175446183547   -0.81551292664620
C          -0.51959181225901   -3.17451424911154   -0.95237874725933
N          -1.41178438322281   -2.96325139303047   -1.92354420470759
S          -1.83294620824073   -4.36919329565150   -2.56694055000027
N          -0.90695887065938   -5.32536018580622   -1.67249464646211
C           1.03717827759264   -6.46972247305470    0.26869185079946
C           0.94943946827661   -7.32694535712274   -0.83864961887585
C           1.21873175827614   -8.66214319377277   -0.68302494488405
C           1.58076371215263   -9.18353552590789    0.57144215786516
C           1.65717697883719   -8.34559458937881    1.67650543005852
C           1.38379874837142   -7.00311856595081    1.51826654241719
C           1.82570980883135  -10.59870626574815    0.42473158051335
C           1.59891316308341  -10.95900403352303   -0.91834995787285
C           1.14280623327251   -9.76158510709059   -1.72024889236770
C          -0.34076722040856   -9.87249512149289   -2.14417102938717
C          -0.68999279440775  -11.04604258793658   -3.04993898153702
C           2.05900303536571   -9.48749882999432   -2.92199728575224
C           3.50469840673962   -9.24344091990714   -2.50393474214232
C           1.82284349653737  -12.24706451125646   -1.33224348856906
C           2.25615571787163  -13.21972940445209   -0.41242098989209
C           2.45651673635454  -12.84563664559666    0.92535385062147
C           2.25051291072654  -11.54933764561473    1.34527783360914
C           2.45257557466804  -14.56069040424733   -0.88891323872488
C           3.10433017479043  -15.56062755438424   -0.24635814610227
C           3.25557418392427  -16.87597361640641   -0.74745996362357
S           4.63414725985177  -17.81018095542409   -0.27026195592932
C           4.27135223347567  -19.10803402137820   -1.37896286868683
C           3.02741369653671  -18.86852072347617   -2.00502574502442
C           2.46151015011698  -17.60696006474505   -1.65319736191564
C           1.18734030405843  -17.26902016409333   -2.13236278318181
C           0.49244833650310  -18.11857443692181   -2.96553885935539
C          -0.83534020444274  -17.74280806047256   -3.44652945505545
C          -1.22458944909393  -16.49811005477925   -3.69020363293935
C           1.05285071631473  -19.38065861040310   -3.30857339147711
C           0.29596735596635  -20.33290333929715   -4.18339208029385
C           2.28474013493983  -19.73752947668877   -2.82022534735751
C           5.22680279692212  -20.11863161626497   -1.53596818838274
C           5.33372625200244  -20.99496771759486   -2.59005434244634
C           6.34395412648985  -21.95319177617018   -2.67553017488463
C           6.54279120295161  -22.79648023861767   -3.74977593725962
C           5.81685300012152  -22.90053864410253   -4.95859876116880
C           6.30093242715724  -23.83302583391747   -5.82580535454085
C           7.44060971949729  -24.52338996555001   -5.35331818123692
S           7.86929116039658  -23.94645144240874   -3.75671818383750
C           8.16057938854783  -25.50508372174047   -6.00061222592046
C           7.91426887484428  -26.04094494059502   -7.29355970618728
C           8.79416128857590  -26.99302659951699   -7.67976152047962
C           9.81130511745637  -27.28528647129259   -6.71256748554333
S           9.56483485343662  -26.26618143127632   -5.28504804446884
C          10.81211724901601  -28.17173252876772   -6.81372644894281
H           0.49892695740982    2.66450129095712   -0.36481209832593
H          -3.46264777598588   -0.15581874708508   -0.13396936301646
H          -2.69649159033994   -1.75747539242780   -0.12834156817290
H          -3.00048167156704   -0.91124424055874   -1.64900952345153
H           0.68999471317099   -6.92293564793239   -1.80341865145820
H           1.91709822731119   -8.73635943812894    2.64870373981266
H           1.41666486213178   -6.35276658177761    2.37722277489121
H          -0.61029438717293   -8.94002181323827   -2.64452274268951
H          -0.94353694101467   -9.94197785367022   -1.23485317045475
H          -0.09557537335651  -11.03724101475735   -3.95983168563970
H          -1.73861919023759  -10.98161372701945   -3.33275733347878
H          -0.53838856215160  -11.99100942200752   -2.53532661608625
H           1.68249559813538   -8.61389668643169   -3.45803186636081
H           2.02513574053898  -10.34005608097842   -3.60176474422413
H           3.57510774594019   -8.37971545538670   -1.84670999499804
H           4.12340230092493   -9.06113555406612   -3.37973274115426
H           3.90227628854517  -10.10756309291714   -1.97582260848445
H           1.69657085839180  -12.52989286359070   -2.36704816032358
H           2.77083409435531  -13.58954875534669    1.64119847312829
H           2.41968428640144  -11.27531088371951    2.37585798269399
H           2.08168776374143  -14.75171457368447   -1.88691877936693
H           3.62537281249565  -15.35214508416290    0.67878848125732
H           0.71590661605008  -16.36203901755332   -1.79110348391714
H          -1.52862457566376  -18.55469593731543   -3.61749852706292
H          -0.56450548760877  -15.65504642596277   -3.57215856481252
H          -2.21906194275911  -16.27581614989744   -4.03693401238918
H           0.01714164059555  -19.85440813801764   -5.12118993614817
H          -0.61750715420219  -20.66560150674490   -3.69019788509539
H           0.89871738663744  -21.21021507278597   -4.40536516186766
H           2.66594590045336  -20.72393128155843   -3.03080260201716
H           6.00143571116586  -20.15259387250914   -0.77905140759868
H           4.64639901197885  -20.90911419130451   -3.41614707186532
H           7.03136503124788  -22.03854721533640   -1.84441654148093
H           4.95981221274582  -22.28480470756950   -5.16467283131660
H           5.87107913326738  -24.03906805263888   -6.78962722916041
H           7.09061027092308  -25.69866947559171   -7.89463057553582
H           8.76839022080156  -27.50947379099214   -8.62274105692990
H          10.92667350660173  -28.77070933505719   -7.69980035928333
H          11.52601021108759  -28.31162201202363   -6.02304134348220
