57
 SCF done       -106.712859514913          0.000403278508
C           1.45699800438955   -1.61581775997402   -1.21636712566527
C           2.35206959338758   -0.50488720603914   -0.97940192347733
C           2.36792346770941   -0.19482279480246    0.32979112495789
C           1.45907954762439   -1.11082668895616    1.04151809425224
O           1.21989077844925   -1.12669979410313    2.22360495672036
C           0.89353096036614   -2.02231855552827   -0.04322086733103
C          -0.03155633444677   -3.07552587627206    0.11656551798317
S          -0.52837843464631   -3.95538190056569   -1.32208943574387
C          -1.59340677246289   -5.01036352946598   -0.42528450328824
C          -1.54282302510877   -4.67161719381677    0.91594326716013
C          -0.67357122327153   -3.59777775471604    1.24017486312899
C          -0.67403542493678   -3.33509330073612    2.63780033243002
C          -1.49166622532090   -4.15676711841955    3.33415429494183
C          -1.73870517478887   -4.18084136599272    4.79630863112829
S          -2.33171909068970   -5.31937148717406    2.31060700669650
C          -2.35384676675461   -6.03015708198943   -1.03242130555943
S          -3.45688846418902   -6.99165551374552   -0.08832229539878
C          -3.93490060748743   -7.94112037077367   -1.47447086798169
C          -3.25918701240122   -7.51277004815638   -2.61378121392915
C          -2.37013431163795   -6.43434751964995   -2.36522547478529
C          -1.59238611213548   -5.85681777364483   -3.38157869439967
N          -0.97084961082113   -5.40552807992206   -4.23394872668508
C          -3.41447963624068   -8.04476251805716   -3.90414847814585
N          -3.51561565113103   -8.45078477835713   -4.97261276550713
C          -4.89482849579560   -8.96271476295815   -1.28577154973917
C          -5.28760990926651   -9.86519787228287   -2.22368544993836
C          -6.25326294353601  -10.87737055300508   -2.03201359261039
S          -6.39030978113304  -12.11724302059869   -3.25373152700164
C          -7.64433827665939  -12.97342955317304   -2.39329918984872
C          -7.93529687152133  -12.28754167380531   -1.22523617240564
C          -7.17136008677048  -11.11114721356578   -1.00544094987581
C          -7.56534487793709  -10.44799755713075    0.19019755574887
C          -8.55900425430419  -11.08520959867029    0.85277349017542
C          -9.21974811070382  -10.68570342383368    2.11985370957787
S          -9.08012543801196  -12.55421604290118    0.04749726627537
C          -8.19258263560274  -14.17101846455386   -2.91322365264370
C          -9.24042361887595  -14.97294964054060   -2.22776953055780
C          -9.53635057842635  -16.03710343948947   -2.96905239555265
C          -8.69114727443626  -16.00463846767266   -4.20935608190374
O          -8.69258700623603  -16.81267950021005   -5.10922952542908
C          -7.87527172340825  -14.78761018690509   -4.08114312599069
H           1.27598465089073   -2.04516832869558   -2.18556187065718
H           2.90840185419882   -0.02066134872125   -1.76220538134375
H           2.92475655094241    0.57471319018155    0.82810744186948
H          -0.08270923103456   -2.56272289164327    3.09130574413840
H          -1.15384017042146   -3.40534082459904    5.28389216666714
H          -1.46295528853262   -5.14905313142089    5.21425941482838
H          -2.79485994427981   -4.01661833391969    5.00944860226983
H          -5.30373052572121   -9.01910912485380   -0.28822109152874
H          -4.81775525054491   -9.85280398294969   -3.19713418823595
H          -7.14706257942099   -9.52257688243801    0.53956384316574
H          -8.79199150245644   -9.75784151733288    2.49145284717583
H          -9.09611509046320  -11.46053113454219    2.87623043186467
H         -10.28902970692529  -10.54450916892769    1.96335760330448
H          -9.66164679051468  -14.69692639393940   -1.27832380418972
H         -10.24541665777349  -16.81639497114872   -2.76543929926690
H          -7.15604090874170  -14.46886817286423   -4.81121614984703
