67
 SCF done       -126.036917592548          0.000387791751
C          -5.86760638947565   -7.86463923301834   -6.48496088153333
C          -6.55718227358419   -7.84068343750321   -7.76661505117227
C          -7.75953417594477   -7.26054646038683   -7.63462232748675
C          -7.94905386050620   -6.89277472245985   -6.20957645290184
O          -8.94460173710180   -6.49578628695688   -5.66754465301714
C          -6.63658712265976   -7.26790239092070   -5.54047651350230
C          -6.34747718140197   -7.09454636639397   -4.16431550638264
S          -5.08815385430411   -8.05707748726445   -3.44033836156436
C          -5.33685574032789   -7.33148045570859   -1.87464813207055
C          -6.35141775694725   -6.37859234552503   -1.93685197327038
C          -6.92031228591179   -6.23925706427949   -3.22970392113015
C          -7.87197393238842   -5.23371781519216   -3.49232394771853
N          -8.57968887915506   -4.34272860202566   -3.62768413785059
C          -6.75147413059627   -5.63010631438708   -0.81707029790402
N          -7.05484785989700   -5.03516451565395    0.11498698361484
C          -4.55470911293760   -7.70317665163885   -0.75566538361835
C          -3.56898460280918   -8.63096574303561   -0.89695445653852
C          -2.68490476506101   -9.17516899041168    0.05198704403093
C          -2.74826167351809   -9.08470062737289    1.51617199307316
C          -1.88456946323934   -9.94413244157094    2.07213183572796
C          -1.17776207827582  -10.68389748101244    0.99655060156497
O          -0.37414351131299  -11.57846404745485    1.08928861859144
C          -1.69209225820864  -10.08766598177574   -0.27714323383305
C          -1.24917695402741  -10.46430187605814   -1.55456129210975
S          -0.72859340620896  -12.09358359434779   -1.88219798958774
C          -0.73033438473411  -11.82475763893492   -3.62140404154108
C          -0.96622115602583  -10.47865594642438   -3.87789677254075
C          -1.23855269758628   -9.70066580287079   -2.72920511771088
C          -1.35478182608694   -8.31837317908524   -3.03507734937102
C          -1.18774333787597   -8.06114176551743   -4.35590392136689
C          -1.25009937357633   -6.74612421884245   -5.04125611499012
S          -0.89821081245429   -9.51059745202066   -5.30062409754686
C          -0.51159436522031  -12.91250985034070   -4.48399110778611
C          -1.01269474527397  -13.05391880543368   -5.75323652952275
C          -0.68551277625487  -14.11679581343289   -6.68316355708084
C           0.38690298794455  -14.96454612232885   -6.60368222458287
C           1.36556727425086  -14.93167154314444   -5.58742350119424
N           2.20904278781232  -14.94751844691256   -4.80867584001023
C           0.67704023515875  -15.96194027170152   -7.55818931189254
N           0.96263250904319  -16.79168039174604   -8.29822071704365
C          -1.65054769303850  -14.05976040792238   -7.77960721398487
C          -2.50085110280181  -12.95902389431814   -7.57147109266424
C          -2.14560817487123  -12.28564883356553   -6.31347007022029
O          -2.73196019943894  -11.34553017437887   -5.80761651960496
C          -3.51342225382323  -12.65802830797545   -8.46039066252080
C          -3.67613122907706  -13.46881009517099   -9.57336136774016
C          -2.85144928886550  -14.56841555177607   -9.79285082311920
C          -1.82956978767568  -14.86568191901069   -8.88848637572156
C          -3.05411704533211  -15.45288700640576  -10.98111208656367
H          -4.88923478501960   -8.28862727776169   -6.33936015273828
H          -6.12644929701047   -8.23793140408268   -8.66847879554546
H          -8.51047309795470   -7.09623214235260   -8.38242450265525
H          -4.76033794853364   -7.20699603502314    0.18217617759249
H          -3.44977809749164   -9.04522493338894   -1.89158428843941
H          -3.42570747853890   -8.42736932653104    2.03096119877877
H          -1.70736020916141  -10.12257739896121    3.11545475768256
H          -1.52801251583792   -7.55510461462995   -2.29815860493595
H          -0.34257057569934   -6.57151983954116   -5.61742777618448
H          -1.36715807932948   -5.94720306098297   -4.31328187210472
H          -2.09147808570307   -6.71653390238322   -5.73368585508879
H           0.05183139032307  -13.73378106540298   -4.05847820500525
H          -4.15603632626929  -11.80932692086837   -8.28236982463602
H          -4.46018246740208  -13.24822004798597  -10.28298999673494
H          -1.20291446016803  -15.72469680440532   -9.06750971519645
H          -3.77265002674220  -15.02356437706282  -11.67414501906240
H          -3.42281684317294  -16.42681132583474  -10.65967638852924
H          -2.11175963468692  -15.61455515121018  -11.50091728427657
