74
 SCF done       -124.463396664738          0.000445273580
C           2.30143462179562   -3.66710461395248    0.87535306745355
C           3.50235947972321   -3.21742245071390    1.50377606507664
C           4.02384463958876   -2.17580856317496    0.81283587066678
C           3.16199928818226   -1.88915650868080   -0.33268963642028
O           3.33264832210324   -1.02387829839201   -1.16454701779259
C           2.02963291820477   -2.90705844555506   -0.24429934285070
C           0.91881633550233   -3.09800833221660   -1.07678609045798
S          -0.16526912972121   -4.40423141267999   -0.64205306827898
C          -1.25710216987398   -4.08959254354058   -1.96382232748479
C          -0.77517437360800   -2.99890107118333   -2.73356553298172
C           0.43615806664435   -2.44476460046017   -2.23915515352441
C           0.99807135871042   -1.35006515210329   -2.91622940427511
C           0.39432601304781   -0.82053930466283   -4.02683053686164
C           0.98014039466401    0.34743092660106   -4.75070739783389
C          -0.81821874280257   -1.38285363988818   -4.51147524918490
O          -1.33065195485668   -0.77973819042485   -5.61282632746823
C          -2.53423127581722   -1.26329422816088   -6.15632915611641
C          -1.39018866150718   -2.46059909744544   -3.86964150435584
C          -2.43077471717186   -4.80990565550990   -2.12880914158914
C          -2.83678027335530   -5.80222555860258   -1.25407876827416
C          -4.03487243481323   -6.50271541886255   -1.30487093062534
C          -4.93549265640085   -6.55478639423684   -2.45675391862931
C          -5.87161874264089   -7.50169183267614   -2.29203438359877
C          -5.66457562662100   -8.14323611637091   -0.98461852877561
O          -6.27526975523694   -9.06620492983228   -0.48271175290618
C          -4.52729225544778   -7.42173317956987   -0.35299696205431
C          -4.20273522815820   -7.71752746053617    0.96408543247060
S          -4.78841296571150   -9.22504391819894    1.61829590667749
C          -3.95820085250620   -8.99226434986897    3.13046200939049
C          -3.30398899517190   -7.73377736735467    3.15437593529765
C          -3.47529939886618   -6.99640008867419    1.95460305519682
C          -3.00992986939829   -5.67950437431243    1.90208121006753
C          -2.29648081935394   -5.11876211482933    2.94057153091507
C          -1.72591542330268   -3.74297157535612    2.76768530915980
C          -2.08107441123520   -5.88441009932579    4.11251883616521
O          -1.34608524142846   -5.45826195784072    5.18789332280092
C          -1.66124363003874   -4.21423285814629    5.78418670941168
C          -2.59471305658793   -7.16355883218970    4.21285141069105
C          -4.01031730810180   -9.92960210243895    4.16370647390435
C          -4.73164252879887  -11.09440072102218    4.11660223587838
C          -4.81068456299483  -12.03550449706835    5.16315101006676
C          -5.63309486897341  -13.26678496292363    5.05445354579572
C          -5.54335140614192  -13.97131772038988    6.18057081011030
C          -4.63918858654519  -13.23900827278935    7.12366861832203
O          -4.32678564574682  -13.57964694411874    8.24592187212608
C          -4.22404769192370  -12.03425234422468    6.39864674110583
H           1.70360072847265   -4.48647314775417    1.23387495102857
H           3.91163240211877   -3.66236406145874    2.39376010605713
H           4.91636569882388   -1.61949899214585    1.02362789963668
H           1.91637725146383   -0.91908495775988   -2.55602385080942
H           1.89936462562280    0.67247184690270   -4.27279858065548
H           0.26926571632596    1.17229463185725   -4.76553829118810
H           1.18598497852872    0.08051179643419   -5.78612749413284
H          -2.74599440116496   -0.62800861990367   -7.01472752294412
H          -3.35801490267598   -1.18719626613234   -5.43920232606096
H          -2.43615190589444   -2.30102924585725   -6.49089550871348
H          -2.30730593216995   -2.89920983118327   -4.22683196280298
H          -3.07189824918010   -4.52957432733368   -2.95143983851028
H          -2.15382028752272   -6.05289891768452   -0.45331575636060
H          -4.81210744295257   -5.93556541503312   -3.32717528696984
H          -6.64632848318487   -7.79254268577046   -2.97585839754659
H          -3.22004105466252   -5.07402121706739    1.03557792703459
H          -1.74973072753813   -3.46197225749168    1.71742878552352
H          -0.69133867692240   -3.71813990034284    3.10454945556978
H          -2.29081029253487   -2.99955965217162    3.32889285550484
H          -1.45530078793409   -4.33127260473950    6.84903753052818
H          -2.71573307368846   -3.96219932079000    5.65256587979789
H          -1.03843383973081   -3.40514918003117    5.39405905753789
H          -2.43552150798169   -7.70490628124717    5.13138054289789
H          -3.44622465419373   -9.70391026622201    5.05748392235054
H          -5.29717537620706  -11.30913323728104    3.21825409872448
H          -6.19973425532493  -13.50395548835406    4.17126195024466
H          -6.01262324737877  -14.90460059404639    6.42751080706031
H          -3.56519847988701  -11.29854463356043    6.81764420085795
