47
 SCF done        -91.135754500292          0.000439164398
C           2.16209730248655   -0.35391591327328   -0.09821266482263
C           3.05975793977216    0.33646241670636   -1.00228335507085
C           2.96730545542220   -0.18885162245797   -2.23577066593503
C           1.94997452479648   -1.26395972227715   -2.21475563053822
O           1.56577514365389   -1.93546056166792   -3.13642971247438
C           1.48891001907931   -1.33711852917094   -0.76426204861584
C           0.51890292130138   -2.25078076964791   -0.30232465987060
C          -0.49274625201536   -2.82852533475928   -1.21268913599695
C          -1.43137020382327   -3.48556660454217   -0.52380446713737
C          -1.08416865452973   -3.42125048915632    0.90873755270253
O          -1.68940688405144   -3.84707855317834    1.86528000056197
C           0.22038641628177   -2.68548138148217    0.98108121100097
C           0.87435712327180   -2.66169133202754    2.22506596708643
S          -0.04566177825436   -3.03489298429096    3.65682524771661
C           1.35606738254221   -2.87677274535566    4.68458515282964
C           2.49604117082144   -2.58935268615372    3.93124585097758
C           2.22562017805231   -2.47537620051083    2.54748642936188
C           3.24297044299080   -2.28766343418002    1.60516632216576
N           4.07650338416074   -2.12504015390023    0.83191027513010
C           3.80045505298644   -2.43168463679680    4.42911067016665
N           4.87804189771528   -2.28980680865207    4.79696297841766
C           1.20229936770406   -3.08872417893547    6.07236930975053
C           2.18562921449775   -2.98157354076395    7.01111811214877
C           2.01393660583402   -3.25842134748723    8.38447810399862
C           0.84121615847035   -3.93675297420199    8.96680353046658
C           1.04578837686098   -4.18787050093644   10.26160082174680
C           2.39076964196972   -3.68067070871092   10.64175215599468
O           2.91244171006019   -3.75197384735841   11.72704464126068
C           2.94618218679491   -3.06192401217350    9.39078527837873
C           4.18950507481311   -2.38055925225981    9.35024827449046
C           5.27135922100569   -2.61436368225105   10.34745027816374
C           6.30854154405692   -1.82419205643085   10.07877348570473
C           5.96413418323351   -0.96950825541915    8.90133461030259
O           6.63090483000878   -0.09177490291172    8.40878980138213
C           4.60813150745742   -1.40580863996897    8.49695901651724
H           2.01550078529876   -0.05903898600941    0.92506550242337
H           3.69777668528059    1.14299592842169   -0.68916993179273
H           3.51151459599303    0.08140935374224   -3.11987841581256
H          -0.44146741551682   -2.68928028222432   -2.27669563601103
H          -2.30292296072678   -3.98861563144626   -0.89580881513775
H           0.19481790702219   -3.33678689062615    6.37809200284357
H           3.17932782876427   -2.69024370041119    6.70383742063122
H          -0.03236109891350   -4.19782912983687    8.39771245410453
H           0.38890877967101   -4.67113945019203   10.95954074744188
H           5.17467727844404   -3.33331389826619   11.13944869314751
H           7.24887298457649   -1.76032415129368   10.59179000138170
H           4.06668242483660   -0.93754721534656    7.69823323880756
