52
 SCF done        -95.312369980260          0.001630332786
C           0.22491088258651   -1.87042717259840    3.79407100815100
C           1.18324459662524   -1.25704617709632    4.67810814066323
C           2.29714647179978   -0.92336771729824    3.99505069525241
C           2.11892078595576   -1.30743454714597    2.58687677319517
O           2.88883243098098   -1.12410644196025    1.67436056219075
C           0.73450872944196   -1.94259984777818    2.52693266103393
C           0.08934538431607   -2.48124328844410    1.40008656779324
S          -1.59065505748720   -2.96434151689557    1.55700346481047
C          -1.70326317017606   -3.53696213949855   -0.09367482208493
C          -0.47045477884143   -3.33554407252024   -0.70886579772555
C           0.53732552501751   -2.76134271170836    0.10541941522913
C           1.77320357043911   -2.63891953262253   -0.58412393204459
C           1.71996870726171   -3.09904646577566   -1.85579907689629
C           2.80498209219608   -3.13449702838151   -2.86598077420250
S           0.12999618828649   -3.71163042803143   -2.28731516317073
C          -2.90551992410541   -4.00175669721577   -0.65944208364581
C          -3.12424670319341   -4.00538129792892   -2.11412825802148
C          -4.39084148412037   -4.32343234090261   -2.39354118009691
C          -5.11540517691346   -4.56655369381922   -1.12532336757068
O          -6.27130152721271   -4.89887728082569   -1.00055982084217
C          -4.09927452781423   -4.36058707463493   -0.04411287860085
C          -4.37500953623022   -4.69333484202420    1.29954618470892
S          -3.19498692526169   -5.48981925136344    2.31677900019359
C          -4.30937671922213   -5.66014023154476    3.65866816850390
C          -5.53075849096517   -5.11839508688231    3.29631308199884
C          -5.58897552877688   -4.58704212737354    1.98196422147662
C          -6.85342686356846   -4.00517828510918    1.69908192994786
C          -7.72571238943727   -4.10614723919368    2.72867689878135
C          -9.12974964283768   -3.63175056201101    2.79268998991294
S          -7.03548620523101   -4.91684876225938    4.12789575156435
C          -3.89104945542417   -6.26798129443997    4.86168173014770
C          -4.77393070265160   -6.48300824257410    6.03698873770221
C          -4.07971997623431   -7.07499324054782    7.00567692423913
C          -2.67382154624054   -7.28881094301284    6.52498405164002
O          -1.76525851773762   -7.79701942198432    7.14452119325337
C          -2.65285713248043   -6.74819522582542    5.16201615454478
H          -0.73991941866530   -2.22912445405889    4.10499749356340
H           1.00550914426168   -1.10475672176475    5.72801025587614
H           3.18800954676680   -0.45249170604558    4.36283766632080
H           2.65572995798987   -2.21891030691733   -0.14072269189255
H           3.72401203178374   -2.74595994579401   -2.43538602435718
H           2.53914200171767   -2.53224094891946   -3.73485570349063
H           2.97570584228872   -4.15530261745519   -3.20955930187447
H          -2.35639741559645   -3.74996620604884   -2.82054374701803
H          -4.86322977175734   -4.38782120052936   -3.35488762911729
H          -7.10215620737410   -3.55147049217006    0.75869829077197
H          -9.39629977797812   -3.13335816491188    1.86398187489869
H          -9.26353100742930   -2.93705802162392    3.62224129369236
H          -9.80810659055443   -4.47021748788775    2.94990828423063
H          -5.80774370483851   -6.18980135085098    6.05269797468303
H          -4.41489288573964   -7.36969682146520    7.98160787231357
H          -1.78587512759425   -6.74605132430900    4.52895793939652
