68
 SCF done       -121.291348472990          0.000822185639
C           0.70712532424890   -2.42130570871935    4.71724042602895
C           1.42616605350337   -1.37847470297741    5.39455943414925
C           1.56377383086563   -0.30984282479226    4.58112025185237
C           0.93352268660863   -0.61583771164799    3.29047145570306
O           0.94509357307256    0.07204851241653    2.29590178046997
C           0.35362211139491   -2.01530446394053    3.45491197548843
C          -0.35592211486271   -2.79334486403092    2.52292649594558
S          -0.49584972694017   -4.49804436946486    2.83953149790208
C          -1.43712273214771   -4.80216993380027    1.40572471367405
C          -1.69417080794626   -3.57973359614612    0.73212999104802
C          -1.06097222324408   -2.46132789076925    1.34260000456320
C          -1.24608313247819   -1.18631878802072    0.78368596458494
C          -2.03185244740401   -1.00923308009787   -0.32407815723149
C          -2.23998992849569    0.33966935261627   -0.93064843987553
C          -2.69875553975336   -2.12545777066734   -0.89861056569749
O          -3.48536656962616   -1.83713344050591   -1.96333960742904
C          -4.21230655920387   -2.87468423006737   -2.57536172967688
C          -2.53359048366845   -3.38925253343632   -0.36988215931256
C          -1.85268755108266   -6.10474839937647    1.16486624967433
C          -2.42059219459218   -6.62490738062911    0.01817436117442
C          -3.06527516738091   -7.86239102745406   -0.06767232764272
C          -3.19653329215212   -8.56269869331304   -1.34968992732758
C          -3.75706007751302   -9.76150830356361   -1.17051545661067
C          -4.08750704945231   -9.92642403686678    0.26621197844283
O          -4.64553515769196  -10.88137065801937    0.76369646924081
C          -3.64140221570096   -8.66836006473036    0.92602701654657
C          -3.99062899392087   -8.33027460165700    2.24987326315203
S          -4.25365342417033   -6.65307199263970    2.71440122840710
C          -4.68259842665955   -7.07030237699889    4.36175744761159
C          -4.67134160048110   -8.44634663344353    4.49401911148028
C          -4.28133900467525   -9.16413355279871    3.33386830797544
C          -4.20934120272319  -10.56108856459636    3.58987141969461
C          -4.54864847618898  -10.89040890986551    4.85660430783311
C          -4.59995426173044  -12.23827316969263    5.47427041741571
S          -4.97078070511840   -9.48871145801572    5.83949358843981
C          -4.93024749113207   -6.08632116815130    5.33679739751687
S          -5.54526337715131   -6.53063626214816    6.90671849334852
C          -5.51560967165244   -4.87876370093592    7.45610174598284
C          -5.04960047851326   -4.03723136300857    6.46289667174388
C          -4.71407717865185   -4.71184572505693    5.25558957321090
C          -4.16919103602786   -4.03905896892381    4.15447622670102
N          -3.70061031393890   -3.44644450936610    3.28851510652536
C          -4.90208219098602   -2.65002821134092    6.63318258835246
N          -4.77754701653549   -1.51929949849813    6.78023462363550
C          -5.92459007189622   -4.49509019494272    8.77516438300946
C          -6.35747729237461   -5.34516609626022    9.70461485403019
H           0.45898653140286   -3.36889608989838    5.16091545652840
H           1.78471360715296   -1.46490740124749    6.40508539845382
H           2.05359681580455    0.62278138392641    4.78358879785463
H          -0.76160131315431   -0.33376340650379    1.22777078276973
H          -1.64258972672884    1.08728592206232   -0.41773372849145
H          -3.29151426138550    0.61656421801490   -0.87157566024203
H          -1.96916273508580    0.32100989455833   -1.98491214416427
H          -4.77023801897589   -2.40553089590845   -3.38420164254160
H          -4.91240365176670   -3.34200136626036   -1.87599529970254
H          -3.54765269628672   -3.63869818290108   -2.99177388302081
H          -3.08221476381001   -4.22566333863383   -0.76401414732145
H          -1.68655787980315   -6.79800959960034    1.98035017762742
H          -2.30458022753829   -6.08608834638485   -0.91233867063548
H          -2.83533987196564   -8.14520905086308   -2.27363476285478
H          -3.96039620788228  -10.52200009658883   -1.90043900192125
H          -3.93893423097400  -11.28504993637871    2.84536989736742
H          -3.91908499755626  -12.29755860097380    6.32347793204502
H          -4.32155435456162  -12.99200349752242    4.74230082208949
H          -5.60425693998152  -12.45347128097258    5.83862699116820
H          -5.85799584790940   -3.43374466894905    8.97981046230987
H          -6.42738548699029   -6.40329570258095    9.51045283835075
H          -6.65327013582559   -5.00823639006432   10.68150693267263
