78
 SCF done       -145.960062859771          0.000876231404
C           3.06061867083228   -4.65206150482738    3.39944737240385
C           3.73546952787221   -4.02766660360965    4.52810778095249
C           3.10218535139544   -2.89843807973423    4.88269317932675
C           1.93128483125272   -2.72439801996247    4.00076440807766
O           1.00759883462400   -1.95973882612254    4.11482064823685
C           2.02739719385884   -3.87443469174683    3.00165137929438
C           1.05179753922854   -4.09293584639419    1.99681476718594
S           0.43128283120158   -5.67703284121805    1.67809240611363
C          -0.78367539761249   -5.08882194727920    0.57988952347119
C          -0.68430009808465   -3.69372979051737    0.44551581150086
C           0.38192309806918   -3.14033027540958    1.22341721314462
C           0.72756022676706   -1.77121166853613    1.07421214368082
C           1.93548886821534   -1.25958559913700    1.59760394315014
N           2.94594932303111   -0.82880944432278    1.92742955955540
C          -0.06387599290411   -0.95180297434824    0.29465558538313
C          -1.17594085894421   -1.46466846230338   -0.37560453818943
C          -1.47690007461046   -2.81492000128409   -0.33976544642999
C          -2.57808706019913   -3.24601430931108   -1.11056702826402
N          -3.48527323655651   -3.52185518605073   -1.75723789744961
C          -1.68173246607962   -5.97480987634732   -0.05430396237616
C          -1.67517785230194   -7.32085254223899    0.13620259708982
C          -2.52763402294317   -8.19072335729420   -0.51646352890770
C          -3.25980343722058   -8.96154493750520   -1.10959004205815
C          -4.03481013561360   -9.89268198086320   -1.77004334592913
S          -3.83993368562462  -11.59455106410563   -1.43065390627050
C          -5.04394633830009  -11.99374555704400   -2.63207737757675
C          -5.55213327905948  -10.85662689916975   -3.23375179517252
C          -4.98838217617991   -9.68092017045317   -2.74972668737640
C          -5.34376492250839  -13.31709056218006   -2.87516237590147
C          -5.52056343602019  -14.51228498526899   -3.03212639103517
C          -5.67501692418865  -15.86977458205854   -3.18393655142501
S          -6.59954590092447  -16.58630691331525   -4.45481262411249
C          -6.18207447771017  -18.20763218304330   -3.95297094102754
C          -5.40095274197026  -18.17708049020284   -2.77456843729428
C          -5.09673374850342  -16.84976464522750   -2.36134926790630
C          -4.29547800434907  -16.61894181248421   -1.22763542035821
C          -3.81749649343602  -17.66830814928774   -0.49675913849967
C          -2.95556372471572  -17.47494105244903    0.70700977534963
C          -4.17053175331287  -19.00172755876459   -0.87482893509957
O          -3.68128648238531  -19.96641643599551   -0.06752189809704
C          -3.98819873808162  -21.31668147361556   -0.34605373320615
C          -4.95489832311103  -19.24592340663459   -1.98050127486091
C          -6.60188590187237  -19.27007147889725   -4.76674926544343
C          -6.13310514715905  -20.55135139512366   -4.69467959485993
C          -6.56840706837385  -21.61893926995776   -5.49492754706599
S          -7.72814562303408  -21.42134227108998   -6.77829221494926
C          -7.64455114296703  -23.10386604829544   -7.23297357506975
C          -6.76121587535085  -23.78784360391113   -6.42161287126492
C          -6.15606545639576  -22.95622611539234   -5.43221784387688
N          -5.25976409123898  -23.48788184286839   -4.48945831576801
O          -4.86211420984913  -22.77517335987666   -3.57277887891758
O          -4.92266543964789  -24.65172135662211   -4.62456970100211
C          -6.50256313583556  -25.16887572354226   -6.53998897578001
N          -6.35300161168611  -26.29589790521972   -6.69438110114604
C          -8.46520673449570  -23.52883825943719   -8.33405330719037
C          -8.51835060886846  -24.75025598906627   -8.86279455695340
H           3.37992883431039   -5.57168821159320    2.94258722236909
H           4.61896845984041   -4.44091408198666    4.98120334732238
H           3.34690898286812   -2.21170779607431    5.66881081248136
H           0.19181569360325    0.09122603957715    0.18730803825378
H          -1.79255997168675   -0.80419296262999   -0.96675580594223
H          -2.40267299071661   -5.54625028155424   -0.73445376901210
H          -0.96435156987564   -7.76922842779199    0.82146289694862
H          -6.30601599092440  -10.89865235414327   -3.99948104233727
H          -5.24887259875165   -8.69573668734104   -3.09303824055821
H          -4.06987931657992  -15.60081470419161   -0.94712714266510
H          -2.77143785341593  -16.41940881198207    0.88604856355053
H          -2.00564861899416  -17.98897933554626    0.56983101774437
H          -3.43400856883203  -17.91166988156817    1.58216873010549
H          -3.45076037479297  -21.89748110677381    0.40109462954107
H          -3.65948042283600  -21.61492213288071   -1.34495371678879
H          -5.06078815991694  -21.50794375578099   -0.25013625182356
H          -5.24308074857923  -20.25365076219473   -2.21500553804258
H          -7.33057467998059  -19.02822432080148   -5.53308473648080
H          -5.34650246119302  -20.79641736991569   -4.00344536040194
H          -9.08146217371419  -22.73895840723755   -8.74673011436600
H          -7.92588449915105  -25.56817996938743   -8.49602833690350
H          -9.17181343703850  -24.95727335175163   -9.69215300293533
