87
 SCF done       -170.643636374676          0.000486675470
C          -2.35605186544096   -0.29926023879907    3.60711724579996
C          -1.63844391171390   -0.96709283304649    4.56069538058946
F          -1.12867512251965   -0.29091967977734    5.60003404328992
C          -1.38826003263522   -2.35505895015236    4.50280671578757
F          -0.60506220250343   -2.87373163409908    5.46459235972631
C          -1.86979556022337   -3.15978279618180    3.48401735234513
C          -2.58686136730737   -2.47675411023087    2.46325136849639
C          -2.83545740837477   -1.06070911462477    2.53082450710031
N          -3.53182933305318   -0.62929509474266    1.47959428940526
S          -3.84028779340404   -1.87306120261364    0.51412206032590
N          -3.11245874359282   -3.02389878796616    1.37100501781411
C          -1.64368199143431   -4.57658487855718    3.37901172031566
S          -1.42082008664265   -5.25900974123870    1.80936265897519
C          -1.12785689984837   -6.84321887879545    2.43373234056131
C          -1.25766887204435   -6.85060026189628    3.82999637851293
C          -1.56408938147538   -5.55902290945019    4.36978395165361
C          -1.82753100636786   -5.42831460421055    5.75040098984029
C          -1.72613768474768   -6.52803614590743    6.54942043904177
F          -1.98544777466328   -6.42778376179457    7.86137492134248
C          -1.37154101334603   -7.79227159164524    6.02261420487188
F          -1.28075887597887   -8.84225989641136    6.85471325195089
C          -1.14933622391228   -7.96233855560325    4.68842155542437
C          -0.81120048568854   -7.94711492015905    1.59784990535730
C          -0.77137467393082   -7.88352387225329    0.24790846728987
C          -0.44693298836248   -8.92856474292804   -0.67989473962179
C          -0.45362933198304  -10.26250833579190   -0.50936230503243
C          -0.89387272940399  -10.98154078161349    0.72535132691572
C          -0.04048620519444  -11.16013895466117   -1.65422588101544
N          -1.13658735903130  -11.98745866009748   -2.10049739730941
C          -1.28417762316894  -13.28148016457909   -1.76406363347175
C          -2.42896111869128  -14.00460089481296   -1.92332920040207
C          -2.49176579163335  -15.37278554442576   -1.61336813967259
C          -3.60334422726631  -16.17315882989080   -1.71263358208164
C          -4.92027666789076  -15.85523768995785   -2.11903832539328
C          -5.78402314108718  -16.90886646222366   -2.08391606181357
C          -5.19731741620881  -18.11960662324607   -1.65318847537499
S          -3.51261442486655  -17.88097626941843   -1.28859586766726
C          -5.81102553166520  -19.35675049256973   -1.51911530481413
C          -7.15889718293454  -19.68418582485629   -1.75454467898505
C          -7.45072577931936  -21.00074160726197   -1.52945172949016
C          -6.34737053538196  -21.77270797380602   -1.11195305308458
S          -4.91903182360994  -20.77257657411495   -1.00303966098528
C          -6.35176929558433  -23.12912905384346   -0.82697879112177
C          -5.21894455513277  -23.82909310195818   -0.44388233659909
C          -5.18165127161948  -25.18494749958732   -0.15858062973146
C          -4.02685265853400  -25.94885415244656    0.22318827837583
C          -2.73316825027575  -25.49686564670040    0.37218625781205
C          -1.64989281135051  -26.31230887810952    0.74887899267385
N          -0.72254585300488  -26.92106730994361    1.05084471857389
C          -2.29365771585574  -24.17433569798332    0.17339665175716
N          -1.84010073597539  -23.12731926414103    0.03022020889668
C          -4.45542115006825  -27.33319759037761    0.42875211615404
C          -5.84507158106835  -27.41666317977707    0.17505833109110
C          -6.34995515629891  -26.07724941568036   -0.20309581889498
O          -7.50259200240503  -25.80478266097536   -0.48631656763592
C          -6.54984846430339  -28.58903044026434    0.28100595603693
C          -5.84819957300086  -29.74077125118205    0.65628772240116
C          -4.46117499594146  -29.64830020936251    0.90743935204268
C          -3.74776298586612  -28.45936639582676    0.80035898713564
S          -3.78887303146761  -31.18820050231016    1.35647671953159
C          -5.36236944814632  -31.92292756258320    1.20104209179438
C          -6.34084775310706  -31.06358822596501    0.83328091400035
Br         -5.56488409303604  -33.75806032709535    1.53968717281674
H          -2.53284159404150    0.76010684625540    3.67154300088412
H          -2.12171697584709   -4.48934233858478    6.18593548360623
H          -0.90791008240258   -8.94226740307242    4.31119699417805
H          -0.55829559853506   -8.85820248698905    2.11372277628481
H          -0.97298507658186   -6.92048337027207   -0.20677870021526
H          -0.16918568200139   -8.56230995341432   -1.66173740782410
H          -0.07251902419699  -11.05446537920760    1.43897183261960
H          -1.21089340012301  -11.99524404689235    0.48490800508163
H          -1.72226643379841  -10.46312356930295    1.20370471788980
H           0.77051477213262  -11.81981791442814   -1.33220793145676
H           0.31564761721097  -10.55948383446470   -2.49691483061995
H          -1.96047594120715  -11.49302402874503   -2.41317585600762
H          -0.39422689543838  -13.76292230828425   -1.37977779877475
H          -3.31312320553157  -13.51056502148696   -2.29921594304235
H          -1.58143289754725  -15.83907330169118   -1.26038396993217
H          -5.19969584354158  -14.86264123535254   -2.42367358835691
H          -6.82180995249571  -16.84795862000788   -2.35799915426205
H          -7.87852169987274  -18.95362937206260   -2.07824925870382
H          -8.42485963461676  -21.43907389249343   -1.65386003145045
H          -7.28973616296690  -23.65729963041776   -0.91804848473871
H          -4.29691548044237  -23.26546312390883   -0.36874665749346
H          -7.60944613266885  -28.61933358679068    0.08054511857596
H          -2.69022579620774  -28.44349576209556    1.00350675514770
H          -7.36784730861442  -31.34722741375886    0.69175018495526
