95
 SCF done       -170.823663402602          0.000341419890
C          10.87921968468477   -7.71370098087834    4.69200616202881
C          10.54176554731193   -6.58013619294855    3.88826893390502
C           9.76886362389140   -5.44071732231924    4.16214518485690
O           9.10993134087901   -5.11446954848782    5.30469745995492
C           9.54863876579475   -5.59209940879608    6.56223518594344
C           9.03794599748416   -4.62304318968966    7.61892615283300
C           9.64194213090404   -4.51204443586992    3.13702776575902
C          10.21496740918104   -4.63582872359992    1.85381905894363
C          10.95849553108591   -5.79097900674269    1.56434454034043
C          11.10943177622046   -6.70666620593667    2.59239997711407
S          12.03746642691562   -8.16960585466604    2.42384535068991
C          11.65390299282057   -8.61179226217938    4.05028740974694
O          11.58996174522414   -6.03167852955679    0.37698226830398
C          10.79694514413320   -5.99601031730865   -0.80561680699787
C          11.52947566186382   -5.24888022001423   -1.90952348603961
C          10.00541652027624   -3.47088587711249    1.07837876753035
C           9.31263196678239   -2.48513569958400    1.72877437166404
S           8.82774796567314   -2.98747029433632    3.33950229171991
C           9.05198730420125   -1.19157541701436    1.20245086515094
S           9.50746592161086   -0.86713013767034   -0.43870000035618
C           9.09292937342365    0.80233610572112   -0.33261032660121
C           8.56003414129080    1.09706353572596    0.92351844849700
C           8.53952913442977   -0.03685607224743    1.80311501733950
C           8.05003402517743    0.11930905412462    3.11781568139125
C           7.58476804983953    1.33798062091405    3.51131448066739
F           7.11665744699158    1.49711140276148    4.76121353685576
C           7.55266959259774    2.43988547661053    2.62422332826420
F           7.02201753757947    3.59923772167411    3.04772358538481
C           8.02530794896809    2.33046634344337    1.35210778175492
C           9.38462605986155    1.65975478423166   -1.43295728345205
C           9.80833718354809    2.93372358346523   -1.31611262792936
C          10.13133180834079    3.72699580870295   -2.46371894717536
C          10.87300613329817    4.84544881397862   -2.47688071879969
C          11.51464077691203    5.46122845500685   -1.27586270071548
C          11.09026771761422    5.57846546656912   -3.77470849468177
N          12.48550049054017    5.68854902678317   -4.17227000552195
C          13.28494793126945    4.62762976864759   -4.46371760777752
C          13.19136127187091    3.36400836956011   -3.97252499221875
C          14.06500921404917    2.34045790658177   -4.38769905184279
C          14.14072711650872    1.08240107399467   -3.85150704149694
C          14.95910891393051    0.02662588958233   -4.32317699966352
C          14.89993323272585   -1.10739713425361   -3.57575707900041
C          14.05790364715214   -1.00664598149205   -2.44233615192538
S          13.27013206224747    0.55621897696234   -2.40780304366334
C          13.92434420607992   -1.94989601213733   -1.44019805160731
C          14.50417991359565   -3.23795199629003   -1.40744220692611
C          14.29836761481057   -3.90869980365795   -0.24223742851232
C          13.56122766054106   -3.18195644055716    0.72799127587320
S          13.07020469425954   -1.63369393059725    0.06173756771038
C          13.32844979744680   -3.63266361861730    2.00205551774156
C          12.70700584286225   -2.96233119398955    3.07036954569541
S          12.57164655498890   -3.77157002119060    4.62763137076034
C          11.79287043091033   -2.44433927527376    5.40311609652868
C          11.64088101800960   -1.40509914687427    4.51870898820822
C          12.15559824772998   -1.70148518221288    3.21494313709769
O          12.00216078171219   -0.63856471514723    2.39323273345607
C          11.40448293129145    0.32137630091042    3.14666226449722
N          11.14315745106073    1.56020101444390    2.54183806485257
O          10.56693126762358    2.39390266524980    3.22464674979516
O          11.49520896250475    1.73546769565180    1.38993630768151
C          11.15178619762703   -0.07449686354181    4.43577922218081
H          10.55160805492636   -7.86262474257434    5.70329600464768
H          10.64428947589359   -5.64326823508709    6.58365597102956
H           9.13348631467130   -6.59183458764908    6.74862176086450
H           9.43029945754733   -3.62720153055619    7.43320410970866
H           9.34728606128455   -4.95407427747777    8.60599386048998
H           7.95343789106864   -4.57473567955628    7.58028229601412
H          12.03523739031875   -9.53643823766028    4.43694510268413
H           9.82627994196794   -5.53311550203710   -0.60212422107701
H          10.62306882828373   -7.03635631450772   -1.11501642292477
H          11.67313125260786   -4.20515227312140   -1.64301412145387
H          10.95505532258899   -5.30241562831953   -2.83030121830666
H          12.50578908214858   -5.69705091070324   -2.07016600857167
H          10.40595927514015   -3.32810297781127    0.09155249339539
H           8.03338205659093   -0.70465480819294    3.81084697880820
H           7.97837644382959    3.17326625193804    0.68348563354490
H           9.35304563345143    1.19877781609619   -2.41289456927396
H           9.97213471615832    3.35238646545802   -0.33678639784829
H           9.76120289145202    3.34405697640308   -3.40833235428242
H          11.68383700419085    4.72704731499695   -0.49489041662831
H          10.88327257408987    6.25566686228553   -0.87487402318565
H          12.47031272088497    5.90104458635956   -1.55470062140944
H          10.71709413134876    6.60174797714709   -3.66250003262178
H          10.51184155957150    5.08688395344092   -4.57005007868275
H          12.70323486876789    6.53643114840457   -4.67199484923064
H          14.11373184524291    4.86714176975875   -5.12059290065492
H          12.43977277160273    3.11083359498367   -3.24277086259474
H          14.73676706740982    2.55493649337193   -5.21066008958297
H          15.56825530889980    0.14412439837429   -5.20267908894161
H          15.46255234445230   -1.99878396444572   -3.78681446239541
H          15.05550640445192   -3.63550168452540   -2.24063155573570
H          14.66060259656833   -4.89892010248483   -0.03198347348579
H          13.68835914225394   -4.62764698330207    2.22701062108972
H          11.51735266421562   -2.50807930460480    6.43395074365267
H          10.68823906580328    0.51812328717035    5.19651079721101
