83
 SCF done       -154.426515309166          0.000824889151
C           5.06811131171504  -16.23579679149289   -2.57629099453058
C           5.45962018988914  -15.18632847210089   -3.30921735719241
C           6.65270784552777  -15.05225952711697   -4.09515420505381
C           6.76478202782103  -13.87246349222635   -4.74492373921529
C           5.68491708026386  -12.97462448110129   -4.52060351121506
S           4.50112269595076  -13.70378422682495   -3.45142601307631
C           5.53220361776642  -11.68952324553745   -4.98198531228010
C           6.41204346657658  -10.90750454506459   -5.76754541111872
C           6.02134159364394   -9.61037062179889   -5.90341370871159
C           4.82987709518372   -9.27372474837025   -5.20963002325198
S           4.13863920271716  -10.73285292748037   -4.51113599357853
C           4.28198992189352   -8.01345263645257   -5.12477662128303
C           3.24820856377378   -7.56161072731130   -4.27112427220025
C           2.98107114241643   -8.06241993507402   -3.00673384847266
O           1.84576403044239   -7.72766827100994   -2.29379170404747
C           1.09681348066858   -6.73346986223156   -2.84352100399570
C           1.45308999699305   -6.10662703399381   -4.07520864099048
C           0.59405951557633   -5.11851744809670   -4.42922396663833
S          -0.66633933872979   -4.93706341956984   -3.26668751948537
C          -0.02550183422994   -6.20716511502650   -2.29268829778570
O           2.52963956114419   -6.50411565570395   -4.80722116026352
C           3.89203657507556   -8.92679561764367   -2.35697028465686
C           3.59405305265585   -9.81775179944417   -1.36853684860024
C           4.54597827834477  -10.78148557357674   -0.95269361754050
C           4.28294258708268  -11.84306363585529   -0.10040590839721
O           5.22966747208681  -12.81450601795674    0.17116085673007
C           6.35860789425162  -12.77194317376459   -0.58322398626557
C           6.63430097888988  -11.67617049903973   -1.44918991548665
C           7.80445632738183  -11.81516734848249   -2.11978016607099
S           8.59103531516568  -13.29063205842142   -1.69370140128218
C           7.32543444658299  -13.72070937870370   -0.60545294400362
O           5.78023032386564  -10.62603978435909   -1.56067458009815
C           3.04225881474746  -12.07609789612037    0.53468061682042
C           2.83732129292279  -13.15706188350467    1.34793702555788
C           1.60841458727090  -13.43936155067746    1.97983124184911
C           1.34465285247509  -14.58537950673403    2.72134507865495
O           0.17036428922500  -14.71221912482699    3.45807463612132
C          -0.73302033287450  -13.70500365754339    3.34395656317384
C          -0.48921565936696  -12.57254633533625    2.51582569010267
C          -1.51499483253789  -11.68509965191430    2.51967616625403
S          -2.79843707525707  -12.22085359342433    3.53941815483600
C          -1.93909278522074  -13.65559925180125    3.96226866231519
O           0.67202742138441  -12.43022807040938    1.82643767164934
C           2.13161392153635  -15.74448332045983    2.89394391914605
C           3.23060683023747  -16.21193573034745    2.21996320783606
C           3.86317855360412  -17.40697704578835    2.57484624360340
C           4.99183436867231  -17.90966465738406    1.96712566830860
C           5.65259017224536  -19.12056758678862    2.27630657841672
C           6.76346541470358  -19.36604545350162    1.52719135716102
C           7.05394395425198  -18.35529222613783    0.58220532508909
S           5.84806321902470  -17.08327055353928    0.67409432361650
C           8.11316940755375  -18.29960274475619   -0.29653541369778
C           9.15476079556351  -19.25150217225534   -0.46157369311563
C          10.07845929438969  -18.91633025089697   -1.39219404562909
C           9.83991253614712  -17.65985380105185   -2.03931999443621
S           8.35317246068836  -16.95077342027568   -1.39209836621581
C          10.57545430178727  -17.05466452460280   -2.98282764749343
H           5.67604652298658  -17.12037042962211   -2.52047495032117
H           4.15007186805660  -16.22596978356707   -2.01842677916669
H           7.37579339080919  -15.84723957966524   -4.12631761662617
H           7.59326282329998  -13.60003110740363   -5.37452356307658
H           7.31305853171562  -11.31624082457432   -6.18903157006402
H           6.58047416706458   -8.86327743093558   -6.43950031014082
H           4.62789490720683   -7.28153959317216   -5.84396026210072
H           0.62896732263457   -4.49447438525618   -5.29729236770508
H          -0.50642279499976   -6.48957405273517   -1.37995576775435
H           4.90015182431795   -8.90668308306393   -2.74030244405492
H           2.59696674377439   -9.86074579131574   -0.96735883685040
H           8.24563747541080  -11.14140449884244   -2.82379131857549
H           7.36393266479281  -14.63929806255743   -0.06031316580733
H           2.23398531472001  -11.39158361449907    0.34761235624171
H           3.66435503932206  -13.81245856032255    1.54728674522590
H          -1.58963160991170  -10.75920056918200    1.98942452279903
H          -2.36831270772171  -14.36972392837150    4.63290199321789
H           1.73411404828181  -16.38639618036718    3.67241222569828
H           3.63644627949695  -15.68992923977996    1.36693958029245
H           3.45313621873435  -17.98423758885594    3.39380903470433
H           5.28243536224792  -19.77640654326888    3.04489017471721
H           7.38101656453352  -20.23997164269289    1.63118868517449
H           9.18433778247576  -20.15524190644416    0.12101158792689
H          10.93701066808806  -19.51157943978211   -1.64803016500808
H          11.47474566676126  -17.51128018655916   -3.35630573239102
H          10.29838770473009  -16.09574989644237   -3.38160892619546
