98
 SCF done       -178.017596641221          0.000590192798
C          -0.71738784332215   -4.16079485695408    1.76310266601221
C           0.51962282545979   -4.47373183192642    2.17153553497573
C           1.12276283620025   -4.17397394602514    3.43975687695427
C           2.39368581980510   -4.61057083965318    3.57072387536655
C           2.90380369827900   -5.28919755136163    2.42661268841621
S           1.68747881689955   -5.35202127171034    1.16791212198519
C           4.15366147204071   -5.83521053297835    2.26659278530509
C           5.22258579306616   -5.84380842521043    3.20014765420970
C           6.34269723340927   -6.46132361382258    2.74620334611335
C           6.22901739808405   -6.98088930290947    1.42843376778523
S           4.63385291400194   -6.64866300524533    0.78669317613526
C           7.19665432858577   -7.65057366565646    0.72688906437001
C           7.00852523256044   -8.14314376544585   -0.57455356086349
O           5.81230610865051   -7.96201467782330   -1.20442364486109
C           7.84678937222247   -8.83786581609498   -1.43395609191412
C           9.18179197985469   -9.40845177646902   -1.58119362139365
O          10.12574153387797   -9.43847056506938   -0.83200375425464
N           9.16090105120329   -9.96107401598342   -2.86367951906524
C           7.96267363010830   -9.81086654304204   -3.55939534361506
O           7.75312951931086  -10.21878369051712   -4.67342133045191
C           7.11186758909347   -9.07751609179330   -2.62077878260297
C           5.85712003543413   -8.52261162048051   -2.44626610447637
C           4.73310483338736   -8.46308390129057   -3.30322362404064
C           3.57404862052411   -7.85055418861249   -2.95645045387022
C           2.43610348006623   -7.74653679627534   -3.78729615055174
S           2.34779895516922   -8.41377640712574   -5.39096956961766
C           0.73815790240013   -7.80694775230788   -5.63465545606508
C           0.30066179137742   -7.12424406047964   -4.50811783689414
C           1.25500912199774   -7.08416192270768   -3.46905081598197
O           1.11038042909648   -6.46708454365971   -2.26538671948423
C           0.21988445348981   -5.36615497814225   -2.23911843989384
C          -1.25210768667445   -5.77650037067823   -2.12727155116489
C          -1.58267245617125   -6.84804193278238   -3.16489833490071
S          -3.37950717515489   -6.89722156158182   -3.46779698022557
C          -3.46273191614026   -8.46984607574748   -4.37178128135752
O          -0.96721163844910   -6.60935517678579   -4.41427918281641
C           0.06003746054141   -8.05502255476933   -6.86080534239004
C          -1.09642173202189   -7.46828743050628   -7.24018248123766
C          -1.73730314926537   -7.76952966097867   -8.48350555657618
C          -2.84697331021914   -7.17783320863228   -8.95599324625179
C          -3.60816182892270   -6.11124016289473   -8.23155570641016
C          -3.37432825150502   -7.54177157287531  -10.32375690918812
N          -4.74202550586939   -7.99605801582196  -10.27276298091043
C          -5.78537838613111   -7.33659510414871  -10.77775801811386
C          -7.08976482771383   -7.71765857542912  -10.63621136090608
C          -8.12067374448848   -6.98717855941883  -11.23781380911320
C          -9.46121494501053   -7.28414019540855  -11.15932005190118
C         -10.54091499491222   -6.55606668752229  -11.78205567846567
C         -10.44698130728731   -5.43625592432927  -12.57387385967446
C         -11.55025326809640   -4.77954975740597  -13.15396756390335
N         -12.40322882385691   -4.19764892410708  -13.65788683593793
C          -9.25245142076986   -4.77746747333205  -12.92400942785353
N          -8.32528280297985   -4.18275028842357  -13.25360592290115
C         -11.78969841384076   -7.22663278564486  -11.42618236230930
C         -11.48927372248878   -8.34035802725897  -10.60593784806095
C         -10.02498456409874   -8.41905496422593  -10.40950100205799
O          -9.43566494535985   -9.25893386123998   -9.75480559389030
C         -12.45788539499938   -9.17356576826727  -10.10417294119483
C         -13.79069180347608   -8.89513498032783  -10.42682970268146
C         -14.08123840328045   -7.78108428249686  -11.24698333229759
C         -13.10039522653343   -6.93799681674358  -11.75510084748116
S         -15.79033790057622   -7.61757177259336  -11.52167778638416
C         -16.08521153045381   -9.02974914611460  -10.54321319475063
C         -14.96511915817653   -9.59609043131133  -10.03646229395907
Br        -17.84615633353892   -9.62308394165625  -10.28144935988422
H          -1.38831553315032   -3.62472194994223    2.41074002284228
H          -1.08022393357704   -4.42677894335972    0.78717290125101
H           0.57241417399083   -3.64293170725046    4.19591965346372
H           2.99455043554446   -4.47274355918925    4.45196064483604
H           5.13205422897251   -5.39490695903170    4.17298307860440
H           7.25455253195016   -6.56801701342979    3.30643220272314
H           8.16216250992377   -7.82409212651940    1.17553447126469
H           9.95932217956534  -10.43621564980880   -3.25924453138688
H           4.85074227626957   -8.93489330404244   -4.26815468139306
H           3.47940293809117   -7.38626162561623   -1.98357071895210
H           0.51390713049649   -4.78641419722593   -1.36157868682617
H           0.36496215014519   -4.75186796929716   -3.13634588294951
H          -1.87330528867636   -4.89523953375119   -2.29421489294149
H          -1.46702652395610   -6.18034358884393   -1.13758537151490
H          -1.28721628216005   -7.84042116151084   -2.79566061525740
H          -4.48752230312482   -8.58008540347011   -4.70955296171085
H          -3.20080638608852   -9.28632421791437   -3.70419564610478
H          -2.78674264520903   -8.43037289080784   -5.22211650828928
H           0.54515495327668   -8.76227600494868   -7.52125361293700
H          -1.54445702237097   -6.72356762880752   -6.60235507733790
H          -1.25223298060611   -8.52629901201885   -9.08843708190467
H          -3.12058191425342   -5.14533266752598   -8.36859398202381
H          -3.65774482454593   -6.30869087471538   -7.16397693964695
H          -4.62324036560287   -6.03160991333097   -8.61444565775815
H          -2.75021183223101   -8.32546062917240  -10.76666581977801
H          -3.33674720322736   -6.66239536397522  -10.97453000765467
H          -4.92795402056496   -8.81464258818398   -9.70971638532115
H          -5.54436024143976   -6.45028884240579  -11.35340040162450
H          -7.34063992306869   -8.59493867297882  -10.06019367417998
H          -7.82306125246299   -6.11981222565445  -11.81242238384099
H         -12.19708634470525  -10.01460600061128   -9.48105832964653
H         -13.37481146471806   -6.10167257586734  -12.37553055671763
H         -14.96442904170718  -10.47141725015983   -9.41296695963835
