100
 SCF done       -178.388294043388          0.000943338838
C          -6.14022255232415   -3.96171317879838   -6.21009221207084
C          -6.09071393549385   -4.25287177322262   -4.90408695585377
C          -7.17552769819900   -4.21138946184754   -3.96542459627896
C          -6.83585691662692   -4.54982466550904   -2.70450492730925
C          -5.46198657910819   -4.89421801769562   -2.53321400900123
S          -4.61692113011985   -4.75632710670174   -4.05863200143812
C          -4.86558629674365   -5.28257669752213   -1.35897014070752
C          -5.50515330827003   -5.40308441630816   -0.09718995742876
C          -4.68170827468584   -5.79543659571826    0.90491140941009
C          -3.33466115006058   -6.01107761394730    0.50528316303473
S          -3.16367996459280   -5.70053930159142   -1.21088772582620
C          -2.32155039592529   -6.38934602255233    1.34377329916055
C          -0.98177888683213   -6.61465011921235    0.98800059788265
O          -0.54826628942419   -6.49291273010267   -0.29957767904939
C           0.09558261514645   -6.99369657852792    1.77387238284669
C           0.50995088406060   -7.32535808713574    3.13274711558232
O          -0.10565482028246   -7.36125634205893    4.16884003359796
N           1.86797900115055   -7.61923678559291    2.99731193221306
C           2.37509865927205   -7.51755248076014    1.70282205778569
O           3.51736113400703   -7.73368243257746    1.38740345552084
C           1.21380035560601   -7.10913060533356    0.91201303120448
C           0.78113408474512   -6.79642565402208   -0.36073471247949
C           1.46672408140278   -6.81274331531965   -1.60599321993608
C           0.84491998193094   -6.47035940901242   -2.75413456948513
C           1.42224361557866   -6.53435125433725   -4.07053073503884
C           2.77803610270553   -6.46441261710815   -4.24404435178499
S           3.30195814984317   -6.54568300333423   -5.87015536699345
C           1.65226146772511   -6.70724794780318   -6.39152686626078
C           0.72685488120220   -6.68566563909359   -5.33568315900750
C          -0.64536421045327   -6.87056287114701   -5.64160778995777
C          -1.65579017023787   -6.91902346748603   -4.52518826138444
C          -1.56868440908160   -8.22955498312236   -3.74359835933288
C          -1.05490188548483   -7.03855319720187   -6.95940203908532
C          -2.50750384786704   -7.29190293468288   -7.26791498904988
C          -3.25887041146551   -5.96583801966816   -7.41615522171085
C          -0.12295346163528   -6.95766331827851   -8.02381812869005
C          -0.29594980456981   -7.03179088419104   -9.46342702001852
C           0.90573414883379   -7.01921577729135  -10.11793205459982
S           2.27472718377061   -6.87228821969274   -9.10131719058570
C           1.23743167836107   -6.83656478373460   -7.70626455421918
C          -1.54543981911149   -7.02070919936247  -10.17178370466880
C          -1.78484236676571   -7.38259020612310  -11.45055782052643
C          -3.12006134283159   -7.31766213639151  -11.94918092321336
O          -4.13848795930819   -7.14240259513106  -11.06074865443480
C          -3.66380476712654   -7.38756303796933  -13.21446017437735
C          -3.34904748803652   -7.54640471533230  -14.63423135337301
O          -2.30075700887648   -7.71070169600774  -15.20453558337269
N          -4.59439677848178   -7.46626483896764  -15.25570871647160
C          -5.68032696000826   -7.27293812372213  -14.40041723047595
O          -6.82819193454851   -7.17350004991230  -14.75404137828707
C          -5.06874353593934   -7.22515031530504  -13.07509572480349
C          -5.32974468837934   -7.08818827222380  -11.72326211775517
C          -6.52877946806575   -6.92670350761982  -10.99190438903416
C          -6.56691593667397   -7.00398011934253   -9.62970325492628
C          -7.71161265220853   -6.80174341576222   -8.84494563508384
C          -7.75293772440576   -6.94454133893129   -7.48037118280954
C          -8.87342264663036   -6.70812747226530   -6.64236314523991
C          -8.65045418581170   -6.94331446009000   -5.32345526702250
C          -7.33860686436389   -7.39357135485604   -5.03010887633242
S          -6.39529693077670   -7.48609064216373   -6.50434529261920
C          -6.83052041293898   -7.73453712832905   -3.79953733561342
C          -7.52025474499675   -7.69751382135434   -2.55377955169557
C          -6.78209573455173   -8.09436714791605   -1.49524174304607
C          -5.43924568376036   -8.48284225449580   -1.82040114058192
S          -5.18957213933940   -8.29836607664214   -3.56328543118322
C          -4.49803775651229   -8.92569566853449   -0.97627566168543
H          -7.06910076613010   -3.66777310618391   -6.66690201786298
H          -5.27306665983202   -4.01182814795708   -6.84096647270426
H          -8.16172796631376   -3.92303929579324   -4.28327597251215
H          -7.52325696452382   -4.56451230394646   -1.87794926695898
H          -6.55093793918946   -5.19109383223404    0.03188353953301
H          -4.98335877811333   -5.93667713090834    1.92755848971641
H          -2.54738046761350   -6.53564278221229    2.38990921988700
H           2.44281621004143   -7.88744456512663    3.78275642664510
H           2.48574425657082   -7.16509732335104   -1.56482182784809
H          -0.17217044905831   -6.13127865781324   -2.65955146374075
H           3.51305320485406   -6.32744324946973   -3.47546446810427
H          -1.51015760147519   -6.06499521825301   -3.86592956245129
H          -2.66848822753622   -6.82013656018207   -4.90170744847006
H          -2.23367306693967   -8.18370443289066   -2.88616906675262
H          -0.55876276263097   -8.42007184667549   -3.39077039911913
H          -1.87218284981807   -9.06135901460085   -4.37487006556505
H          -2.97323307515799   -7.88334122183313   -6.48073438135364
H          -2.58461945870388   -7.88820393171830   -8.17561703447495
H          -3.33351802477512   -5.46910835995837   -6.45189554274095
H          -4.26342350292324   -6.13603613328561   -7.79367516008809
H          -2.73678978241457   -5.29030864294172   -8.09114764889302
H           1.05371135464742   -7.03913894608858  -11.17981905837954
H          -2.39601016418243   -6.63809528628604   -9.63651135979400
H          -1.03003105505943   -7.73373790234865  -12.13543187729618
H          -4.70337189322295   -7.54118931289487  -16.25678265769787
H          -7.42246210645184   -6.75574760612125  -11.57260803089857
H          -5.64992287468971   -7.24719253255049   -9.10798634287830
H          -8.62705709429542   -6.50821614840539   -9.34154252110827
H          -9.80991430254748   -6.37020935621166   -7.05039845420163
H          -9.39071867604371   -6.81545836822611   -4.55426641848466
H          -8.54614796702406   -7.38067510140637   -2.49212937515660
H          -7.13231861100177   -8.13878217086247   -0.47934441216233
H          -4.70696583914742   -9.01715592105110    0.07515949567679
H          -3.51731019597911   -9.21045768643570   -1.31020725728253
