68
 SCF done       -122.686049704173          0.000163325746
C           4.97922547104443    1.17055646210582   -6.22236258955276
C           5.04700746987713    1.01117509789520   -4.89231509879804
C           5.59185820271245    1.91739768181587   -3.92483612700107
C           5.51269448176926    1.48106475179634   -2.64601332301309
C           4.90373884328057    0.20667421971716   -2.49922548376492
S           4.43524447178298   -0.42832733917742   -4.06092634245172
C           4.67317954838323   -0.48033796751521   -1.32486928094369
C           4.98012629754362   -0.07821331785314   -0.00739435010427
C           4.59776249574676   -0.97795469271484    0.94371205609469
C           3.97109978198099   -2.13493137443315    0.43214001507661
S           3.89371484216582   -2.05240455413427   -1.31350601273955
C           3.46474484413416   -3.17570186728268    1.18772992177417
C           2.83097276994320   -4.32054389964667    0.72993365352544
C           2.26486475841839   -5.34906819956041    1.52277693048283
C           1.65089337468019   -6.38845533918168    0.76067443114681
N           1.07951996267705   -7.45260458172057    1.33866051898725
C           1.08597059722744   -7.52578986236692    2.64523830444843
C           1.65155821387263   -6.55688115785086    3.48481590516228
C           2.24687657311837   -5.45560422771752    2.91843389892362
C           1.75318800771163   -6.18577327099882   -0.63863016011692
S           2.60686695841455   -4.69243913422032   -0.95646742961428
C           1.36030649286193   -6.94936400883282   -1.74252610108932
C           0.48636028535776   -8.04804007936433   -1.89573507757350
C           0.37532888518809   -8.50096487275808   -3.24957255231639
N          -0.40187090533260   -9.53570237158574   -3.59533098597643
C          -1.09630528774953  -10.13178511881969   -2.66131610253836
C          -1.08243801835136   -9.75004213006810   -1.31298914330532
C          -0.28515269244125   -8.70251442895871   -0.92336475883455
C           1.17282481059709   -7.76900103168153   -4.16159721744037
S           2.01422930732302   -6.50809994488011   -3.30025293816254
C           1.43616125644361   -7.90826596897367   -5.53177824000137
C           0.85823603931646   -8.68403777811733   -6.55798199335535
C           1.50331501161693   -8.51308545849847   -7.82693014567445
N           1.07972128537028   -9.13282626331979   -8.93936867350004
C           0.03920291993488   -9.91685829132545   -8.85106752582166
C          -0.66478551271188  -10.15450676577881   -7.66023922764936
C          -0.25583322189521   -9.53765175394071   -6.50517539124921
C           2.58176195121021   -7.60523096568868   -7.79723390645979
S           2.74639447825878   -6.96167675452146   -6.19152172996633
C           3.47096922400820   -7.15415971962814   -8.79562015418662
C           3.80883247898434   -7.65220728977369  -10.06337916027197
C           4.82783032517674   -6.86126646645105  -10.70633937028726
N           5.33181366491154   -7.14502517824594  -11.92702303438517
C           4.87165929706704   -8.20360103516404  -12.52553427825848
C           3.89116959815684   -9.06227286138863  -11.98224286135534
C           3.35284297986577   -8.79096929980655  -10.75273680207730
C           5.24249978655210   -5.79174389162192   -9.93879499390934
S           4.42623382202323   -5.73316693306636   -8.44740924982729
H           5.36111923953335    2.06177005086004   -6.68820475065702
H           4.54600639224454    0.42190593461383   -6.85963901141363
H           6.01782009866525    2.85671074219309   -4.22973477079172
H           5.87066090269086    2.03249063543613   -1.79467988764800
H           5.46547268497430    0.85677261890867    0.20691832154244
H           4.74461108732064   -0.84156378364478    2.00100078164977
H           3.56476767858748   -3.07272590336225    2.26040781488668
H           0.61429159011142   -8.40621993614380    3.06247807802796
H           1.61712022013131   -6.68400972215611    4.55517098707443
H           2.69652814463747   -4.68985517881597    3.53331106879498
H          -1.70612915412558  -10.96193004885221   -2.99521986358628
H          -1.69118947698772  -10.27974533567719   -0.59733574691624
H          -0.21906932982167   -8.38324841289474    0.10401630821570
H          -0.26599232041490  -10.38954494881452   -9.77635062489201
H          -1.51848641662316  -10.81384490591805   -7.66395302052404
H          -0.75275416567420   -9.69395413270179   -5.56139048068411
H           5.29219549331807   -8.41058358343299  -13.50188193182929
H           3.57297769495242   -9.92598691510758  -12.54529100183278
H           2.58606860755523   -9.40697679062845  -10.31173455715846
H           5.98178480092531   -5.05910114870398  -10.18978553426716
