93
 SCF done       -169.387218864453          0.000727432658
C          10.57426293049817   -6.15157914863699    7.69664249896740
C          10.45065784358326   -5.73963457110780    6.42787281507534
C          11.46359715330387   -5.15269940465280    5.59607430600645
C          11.04536273836600   -4.83558369707465    4.35230076777783
C           9.67569844262806   -5.13949245967240    4.09820355607592
S           8.93786255996124   -5.85474623927602    5.51164106915722
C           8.97916795203295   -4.92386358228310    2.93232621990268
C           9.46632748457014   -4.35185622765217    1.72896379674002
C           8.53030826061564   -4.26928370399097    0.75136342718384
C           7.24569515990651   -4.75876409655877    1.12609328766504
S           7.28026767370596   -5.33391456905701    2.77269941232802
C           6.17230300425150   -4.81557647037550    0.27392083203107
C           4.85655065660691   -5.23074877857851    0.54264773422912
O           4.06600799062887   -5.46548535275449   -0.55191451525218
C           4.09054426962149   -5.46339716882000    1.68142112056088
C           4.04204144167228   -5.36675206250096    3.13665506606587
O           4.83744398525733   -4.95889925850038    3.94760217550856
N           2.76128792105564   -5.81887951621685    3.46377691181474
C           1.94549372133245   -6.12505099478531    2.38058012212528
O           0.80214018481407   -6.49994184185311    2.45171660434304
C           2.80930574081229   -5.87452119034464    1.22804108631458
C           2.82726933159976   -5.85923151330134   -0.15123724972430
C           1.79784765509546   -6.15574845352269   -1.08190919382453
C           1.99624730280950   -6.13596945640041   -2.42249195069653
C           1.04385054982605   -6.39364365097603   -3.44440112583866
S           1.66122694462900   -6.65314489935288   -5.05536328042080
C           0.05947226561691   -6.88252564788830   -5.67181943734060
C          -0.89843699583931   -6.75770420158211   -4.67291087464239
C          -0.34500091046166   -6.47381108469872   -3.41743660326966
C          -1.20511880545974   -6.24124146540320   -2.22079739856885
C          -2.67296262252494   -5.98714730939040   -2.58615033545487
O          -3.38851232119254   -6.02908547343312   -1.37147868265374
C          -4.55451835705031   -5.23999059712572   -1.32912084090690
C          -3.14686262466987   -7.05789100749699   -3.58907724841860
O          -4.53280735479698   -6.89249489936678   -3.81255468770712
C          -5.17696545787663   -8.01619813393485   -4.35675547674943
C          -2.36322427586485   -6.91661150133539   -4.90205271228915
C          -0.13322512961270   -7.15319331998323   -7.04914649710539
O          -1.38848077291153   -7.21785857660982   -7.56965151540480
C           0.77150851418467   -7.38578246905317   -8.06568396352041
C           2.19415596260184   -7.49342616134294   -8.37942801874912
O           3.17209651053864   -7.37278773697938   -7.68498374391518
N           2.20479109367510   -7.78140183065079   -9.74259598635082
C           0.94786352173099   -7.86715349166179  -10.34647218864326
O           0.75944479215348   -8.10722927610978  -11.51245703965132
C           0.02084974733481   -7.60745797229568   -9.24852956289532
C          -1.31620543889361   -7.49057547520418   -8.90927663354334
C          -2.49820908336788   -7.58541111604978   -9.67311899536236
C          -3.73273092282009   -7.35798878648736   -9.13607291158888
C          -4.94270892865603   -7.41967625142950   -9.83964139886030
C          -6.16090494091502   -7.14258503928536   -9.26934362226419
C          -7.43157828582497   -7.17213929244126   -9.89881336806535
C          -8.46860105610918   -6.83733431533043   -9.08611554082123
C          -8.08211391113833   -6.52093931653924   -7.76002778842796
S          -6.34408694792766   -6.67052509411987   -7.58724291075972
C          -8.88407746893483   -6.13992068140292   -6.71018972518815
C         -10.29848665351887   -5.97477822401331   -6.71711273754052
C         -10.81906044506631   -5.58734019651864   -5.53240029614365
C          -9.85052985751832   -5.41485989434664   -4.48696075639518
S          -8.23807950057931   -5.77813745384634   -5.12290374949469
C         -10.06844204691226   -5.04276882164082   -3.21859001877443
H          11.51288823417794   -6.06241319139532    8.21490999698426
H           9.74825333436622   -6.57911294624829    8.23467423515452
H          12.45894733439966   -4.99417614393616    5.97178141620716
H          11.66813902183767   -4.38806360483303    3.59841353648777
H          10.48400704941265   -4.02151944733927    1.62316521739650
H           8.70604563098503   -3.86719999381400   -0.23085067976074
H           6.35148397550467   -4.54432712852261   -0.75837031046899
H           2.43896414944726   -5.86022051013759    4.41978389980912
H           0.85503952071029   -6.42090427143125   -0.63399451972964
H           2.99808226317371   -5.92791270311992   -2.77692958069433
H          -0.83525528101716   -5.38872415098516   -1.64817848786100
H          -1.18631922644744   -7.11222556614753   -1.55933401982876
H          -2.78796293295329   -4.99927193871051   -3.05664940874392
H          -5.28195605022508   -5.55600969838143   -2.08040952113396
H          -4.31457596992365   -4.18026468410873   -1.48430146544414
H          -4.96695809370671   -5.37439547607012   -0.33055667611559
H          -2.96258149638047   -8.04800623817200   -3.14226049543608
H          -6.23641198854541   -7.76977171822932   -4.38984352046049
H          -5.02517896019037   -8.90199504633024   -3.72774810765398
H          -4.83255840539089   -8.23676628144318   -5.37296406844741
H          -2.75214478640781   -6.04267652201651   -5.43519859929844
H          -2.54170932721784   -7.78633798719797   -5.53753800512951
H           3.06068951823392   -7.91634964779169  -10.26111107915826
H          -2.37206243790300   -7.83254169464893  -10.71617131257906
H          -3.78973311651804   -7.09569185824543   -8.08668091330659
H          -4.92316858104057   -7.69094812131352  -10.88637468193948
H          -7.53249711658028   -7.44003933094967  -10.93585679012757
H          -9.49680796274698   -6.80708747391334   -9.39932684894553
H         -10.87772647108619   -6.15002865636001   -7.60627405163204
H         -11.86365156868009   -5.41184235650660   -5.34600373379347
H         -11.06467080630586   -4.83092350136798   -2.87232333871998
H          -9.26481964379645   -4.94443168708496   -2.51194031236231
