103
 SCF done       -186.282903525354          0.000408973624
C          13.44593930917805  -11.34333118428925    1.62617317867641
C          13.28115216096000  -10.41637975902920    0.67375815119031
C          14.28611524040472   -9.84747565857670   -0.17998124946896
C          13.82311984053739   -8.92923639522122   -1.05407428019138
C          12.42069223592480   -8.69061861967402   -0.97063487256299
S          11.71145775905614   -9.69570627336043    0.28223808576715
C          11.67766116820291   -7.82137769469675   -1.72484143681855
C          12.13137046228625   -6.96296676906172   -2.76327790761522
C          11.15544824837799   -6.21366772730995   -3.32486496576355
C           9.84937831281036   -6.41841401122956   -2.77836606743759
S           9.94905839689671   -7.62129277935110   -1.49223450453614
C           8.72528021020037   -5.81453542500730   -3.24437771635056
C           7.37266702836973   -5.92613825503938   -2.75965765660351
C           7.10963947638518   -6.22797269376888   -1.41279145730984
C           5.83505010608653   -6.26216716832367   -0.89231730683051
C           4.73625962730045   -5.99267894743589   -1.69917939660958
C           4.96028742392316   -5.70639759728190   -3.02597710071187
C           6.25088667485099   -5.68229975852701   -3.56608162004756
N           6.16257968789531   -5.41605633249812   -4.93213762043571
C           7.20701798886922   -5.49045897838202   -5.91969458916843
C           4.86504458154679   -5.24903237130290   -5.32874379369895
O           4.51572566190580   -5.04020082704847   -6.47007989331195
C           3.97051673326510   -5.41531487630175   -4.10753917438335
C           2.99036296522647   -6.57834412166154   -4.37096466371858
C           3.76944446271842   -7.74019974980988   -4.99676012459038
O           4.70783452188451   -8.33182621323257   -4.51313022796344
N           3.24055057723444   -7.97965138397800   -6.23073681183207
C           3.78069512310713   -8.94420890536269   -7.15018453344855
C           2.19971279133584   -7.10979085061815   -6.51757943353102
C           1.43957569738988   -7.02096722083876   -7.66097169932626
C           0.44115179766290   -6.03569513582742   -7.73109814853752
C           0.23225021628218   -5.19088389090304   -6.63471693020889
C           0.99879848000119   -5.29627335663614   -5.48608804015052
C           1.98573997959113   -6.25593158933556   -5.42855734286660
C          -0.32260416706388   -5.93628203779199   -8.94889450938090
C          -1.21635565053060   -4.97987597298804   -9.28245245576250
C          -1.90002546634529   -4.95599281842885  -10.52281724980806
S          -1.69387256590545   -6.20413337667328  -11.73275777267693
C          -2.78998036613380   -5.44779718151404  -12.86806712845606
C          -3.28968722145128   -4.26225506823080  -12.29879362621896
C          -2.78754680588665   -4.00861284213055  -10.99848952977799
S          -3.41421667999286   -2.54085578978752  -10.31954584060570
C          -4.35441806315605   -2.24930020314916  -11.77304014365156
C          -5.16207598994804   -1.03181659290439  -11.78486322210754
O          -5.16155400720951   -0.29219789437294  -10.82391760349535
C          -5.96523378996490   -0.77107333407137  -13.03965665922377
C          -6.75574839650284    0.52514167679263  -12.93841940339975
C          -4.17423390607742   -3.24278893763640  -12.70349633441677
F          -4.78126540092034   -3.25483659208765  -13.90107793155371
C          -3.08689508621993   -5.97149178950694  -14.12310245247301
C          -2.59081601571921   -7.13819950915197  -14.66449178346416
C          -2.89050972481857   -7.66602334711404  -15.94218110819959
C          -2.25984157853483   -8.84073173752948  -16.22910420930883
C          -1.42781624996257   -9.30541682673740  -15.18829119781842
S          -1.47304886758992   -8.19533319764032  -13.83305232746699
C          -0.65051554380613  -10.44447626543063  -15.13103880705492
C          -0.46817030210387  -11.45313136206728  -16.10419358466065
C           0.37648469526911  -12.44577014910898  -15.71888728674209
C           0.91928926346714  -12.29064792626631  -14.41024832394082
S           0.29426144668426  -10.80762771746513  -13.70324619827696
C           1.78450677081435  -13.15933775908182  -13.81413978222639
C           2.36526497312920  -13.08438084269247  -12.51282000691793
C           3.24373759822537  -14.03871249556718  -12.04978714610296
F           3.65350730482833  -15.11104275336485  -12.73015951206297
S           3.83802473212512  -13.77920887272970  -10.44842393053738
C           2.87324501223900  -12.33528833407898  -10.38849922404406
F           2.88995138687902  -11.58872254195389   -9.28466439734721
C           2.16364852935033  -12.08557001328711  -11.50643587144758
H          14.41910432011041  -11.75421690085033    1.82958445158950
H          12.62157301692757  -11.70418859242878    2.21326770389064
H          15.31323998059765  -10.15632448000939   -0.09693411116769
H          14.43731121055176   -8.40524143716229   -1.76513366882484
H          13.16436724041220   -6.93442925811517   -3.06097784323936
H          11.31314310181391   -5.51138117239137   -4.12518978223679
H           8.88225947609641   -5.14603375263857   -4.07770722800748
H           7.94452728123537   -6.40170586696668   -0.75349852121222
H           5.69200278816844   -6.49219738770945    0.15217035132141
H           3.73479206527254   -6.00995263243479   -1.29667619746090
H           7.82209215017150   -6.37508891878682   -5.75466732668706
H           7.82882406060477   -4.59240635873271   -5.91465446298411
H           6.71569507540569   -5.56058518427293   -6.89188853784460
H           3.39765027019600   -4.50267316093267   -3.92024791348389
H           2.53723338851633   -6.88405627036797   -3.42423379943220
H           4.60372088010771   -9.45012116940375   -6.64712505682967
H           4.15265476613705   -8.44497410056094   -8.04704274843209
H           3.02303257590804   -9.67623058879500   -7.43326240779138
H           1.61144951888007   -7.67719437988049   -8.50000225263151
H          -0.54068582027538   -4.44069753666055   -6.68063737177880
H           0.82419974867389   -4.63148825340822   -4.65299194937110
H          -0.12935106373991   -6.71253416309010   -9.68083813845974
H          -1.44868399397108   -4.15836436603247   -8.61937780581304
H          -6.63586702464107   -1.61880057969289  -13.20191824684091
H          -5.27784231696176   -0.73683226170439  -13.88881070212677
H          -7.44584033822888    0.47935549887665  -12.09975947406141
H          -7.31936455749931    0.69829312361813  -13.85156124130461
H          -6.08264124917883    1.36269605085715  -12.77361956649117
H          -3.77712628555522   -5.40330548514235  -14.73252272764702
H          -3.56389838716081   -7.15896771874253  -16.61066105069461
H          -2.37238950682331   -9.37953917273457  -17.15273096150868
H          -0.96447721051548  -11.41469833939999  -17.05737039111223
H           0.63521575542041  -13.29474186596587  -16.32650450803789
H           2.07588066393148  -14.02398621538278  -14.39619723386752
H           1.52213360476200  -11.23282417666729  -11.61437156831686
