89
 SCF done       -168.419419106341          0.000475316434
C           4.91075303638845   -0.01418460713648   -6.81097823292715
C           5.46008196327734   -0.18554748913177   -5.60162694360028
C           6.51507069865135    0.58083270614578   -5.00026155232694
C           6.85934484559101    0.17709574947570   -3.75895779488225
C           6.11109074533298   -0.93508861000269   -3.27398899532627
S           4.94765571560490   -1.45296129380900   -4.47454122216854
C           6.22877097164370   -1.54815423687498   -2.05028334907694
C           7.11446109320344   -1.21010495868748   -0.99440515465413
C           6.97433668741175   -1.98728828732872    0.10928975903574
C           5.96798049297356   -2.98443833909003   -0.00506463780217
S           5.21986528438709   -2.90873061423579   -1.58532657640862
C           5.58732755698719   -3.87090408449472    0.96761547944518
C           4.55823327370215   -4.81320342760924    0.81100422857509
O           3.91358778706931   -4.94971721110058   -0.38205841707100
C           3.98627476831823   -5.70098199288971    1.71181893792337
C           4.05016871262737   -6.19588451476003    3.08408864782778
O           4.77038631131985   -5.90273215875150    4.00514370062481
N           3.04018195029833   -7.15736052470692    3.13082962400485
C           2.33366684169615   -7.34111939973339    1.94327002807979
O           1.44811127852863   -8.13790589656328    1.78122076213625
C           2.95068660290108   -6.37708946713793    1.02490045303251
C           2.93258205602583   -5.88994579933232   -0.26885612760435
C           2.12786902335078   -6.17891190099128   -1.39959518338057
C           0.99154649520683   -6.91276173212697   -1.34194769910102
C           0.17811533768774   -7.17192805100821   -2.47561162160385
S           0.74452840666092   -6.99152604150633   -4.10953859458499
C          -0.81436769754928   -7.42504319311911   -4.76210843340695
C          -1.72187873836110   -7.70242848254082   -3.74503459829157
C          -1.14378932261699   -7.56783621593454   -2.47672887121283
S          -2.03882936882874   -7.83928685681577   -0.94994003359553
O          -1.87702511186922   -6.68613825058692   -0.10811583868815
O          -1.66199067586139   -9.12266185705998   -0.43045434531581
C          -3.75511177797918   -7.94045010896026   -1.54070406725208
C          -3.72959648934085   -8.85385576493374   -2.74779751139901
C          -3.13308136578156   -8.14905703358847   -3.96498145050608
C          -0.96050034441002   -7.46884883266830   -6.17718467425491
C          -2.11753828598811   -7.34026265433875   -6.86833982453585
C          -2.19916673914547   -7.41876832908093   -8.28324604420414
O          -1.15082944439744   -7.84082388925000   -9.04385863729120
C          -3.25197042473780   -7.11606650473970   -9.12344731662441
C          -4.63507890356742   -6.63993934139901   -9.16372329740642
O          -5.39333860833449   -6.32900813146778   -8.27940077826599
N          -4.93230074817170   -6.61992152782788  -10.52290187402413
C          -3.89815411247857   -7.03551368405437  -11.36828099343655
O          -3.97228312716314   -7.08784625280785  -12.56986352755197
C          -2.81152415839121   -7.35487068046079  -10.44798650937053
C          -1.50677041962070   -7.81668009917084  -10.36237691319870
C          -0.62799048370919   -8.25999654222545  -11.37148472321836
C           0.57863544781828   -8.84892526396415  -11.12435826130095
C           1.42162054880160   -9.34261894523347  -12.12946658591400
C           2.58050142230004  -10.04026825015109  -11.89600564941339
C           3.44924528700904  -10.59097604868044  -12.87369342329225
C           4.50308775059010  -11.28041284447035  -12.36349950353530
C           4.53497074543797  -11.31709523855705  -10.94711986854033
S           3.17724609539892  -10.42145459034093  -10.29026889851995
C           5.44643729468073  -11.95641776298682  -10.14041882034610
C           6.56728915246229  -12.73281393701911  -10.55329096692313
C           7.27916886460693  -13.26580221259323   -9.53692215092924
C           6.77559153739840  -12.94919685845548   -8.23041962016390
S           5.33975963394661  -11.92465333966579   -8.39389644320185
C           7.26529621137914  -13.33854720233724   -7.04605601846280
H           5.25167826650258    0.77076122525011   -7.46283905212377
H           4.11851447814346   -0.64675084312211   -7.16700718733523
H           6.96579064707107    1.40199057666947   -5.52881553742732
H           7.62694902033425    0.63720736020403   -3.16260480739175
H           7.82036138686317   -0.40358052149848   -1.07980545670548
H           7.54964467705983   -1.88180494962911    1.01182124640170
H           6.07211995804823   -3.84729501117458    1.93122631860085
H           2.83602289159959   -7.68759518173575    3.96566963511709
H           2.45182717052348   -5.73550979734754   -2.33267262848480
H           0.62923294368710   -7.30061009903091   -0.39918042422923
H          -4.08150827949395   -6.93034383877986   -1.77127813073282
H          -4.33984905387481   -8.34694031469140   -0.72015166729410
H          -3.13024281549402   -9.73069033133146   -2.49148943702805
H          -4.73916821341349   -9.19018131123878   -2.99368142116914
H          -3.75317361581785   -7.27945929197201   -4.20742550408071
H          -3.16029884603691   -8.82023654893652   -4.82714777391968
H          -0.04117517297219   -7.57934780139652   -6.73771398126236
H          -3.05335355947098   -7.11063113598624   -6.38625294430510
H          -5.83305563346720   -6.33073448532186  -10.87613176821440
H          -0.99145334278925   -8.14628722614771  -12.38229336894660
H           0.89649672277893   -8.97225662636296  -10.09677167984852
H           1.13140064623281   -9.19027804854811  -13.16060926862845
H           3.25696818136315  -10.46149271381993  -13.92420531592442
H           5.25391958560279  -11.76607774105604  -12.96051007073818
H           6.80067246173746  -12.86955421513162  -11.59421533101132
H           8.15279591388412  -13.88228422995882   -9.65306092368580
H           8.13869240158231  -13.96421579281701   -6.99190633501356
H           6.80661960004589  -13.04424219424186   -6.11996022941768
