94
 SCF done       -163.655364270274          0.000771578608
C          -1.75720180645568   -4.22857056638131   -1.41274000780651
C          -0.47369141270332   -4.05527868990772   -1.75245978250980
C           0.06760099467511   -3.10782161846367   -2.68648141309464
C           1.40761892829819   -3.16995714632208   -2.83434902715993
C           2.04338310336584   -4.16247682374905   -2.03352687333384
S           0.84736219587690   -5.01986570466555   -1.07359992580047
C           3.37795771801269   -4.46236217598413   -1.97266301054999
C           4.43951709113418   -3.89059484222616   -2.72801907324525
C           5.65464549704572   -4.42551948616733   -2.46900011958354
C           5.65024526041843   -5.45423277521008   -1.47722351757191
S           4.00153008684375   -5.69815615870585   -0.89193053035775
C           6.72770220509738   -6.13431512828632   -1.01276423137318
C           6.68886385814656   -7.07805209385571    0.08379201278737
C           7.54855067993402   -6.91122219525107    1.13130353522421
S           7.14981167488306   -7.82454536255901    2.53186538821287
C           5.78457559433203   -8.50586742711999    1.69851113187669
C           5.69503331964388   -8.08941946345705    0.36222501030715
C           4.74068801723906   -8.69812757424448   -0.48730142869794
C           4.90226404542621   -8.57565365189401   -1.98114294343479
C           5.53594935070823   -9.85860142640412   -2.52999627744447
C           3.76245822503155   -9.52391213479074    0.05124403609238
C           2.58427388817895   -9.95564016918677   -0.78040074280543
C           1.45268621653740   -8.93968338250876   -0.59844471884357
C           3.79928984928841   -9.86396051200052    1.42391685249218
C           2.90806099723290  -10.68074126383121    2.21166439844413
C           3.27987988593053  -10.73055262457878    3.51934639376676
S           4.73337546507294   -9.88441156024252    3.88184857960320
C           4.84100755631030   -9.36979152550608    2.22697017719891
C           1.76164850859327  -11.46327580531638    1.77071434704089
C           0.53568234117810  -11.33763161796785    2.29373232917904
C          -0.56868612473872  -12.18134315533750    1.91047194918855
N          -1.78150119682880  -11.88730155321181    2.42891842821929
C          -2.75536432477646  -12.69590160551083    2.12416988745021
C          -2.53589858373448  -13.84249638408781    1.31986699475525
N          -1.31219690536764  -14.01348237133051    0.78457294855194
N          -0.35772091367437  -13.19178198537298    1.06880641943971
C          -3.55414936832662  -14.79847126039769    1.05232761649495
S          -5.15449324038932  -14.59942796881661    1.67195685577201
C          -5.72292159224750  -16.10027472181128    1.00510099381103
C          -4.68917698277001  -16.73617091625343    0.28511270436679
C          -3.46476520140266  -15.99738524052396    0.32512149075983
C          -2.32376050780036  -16.48693502442363   -0.32224353183082
C          -2.36274055534945  -17.68093172969042   -1.01174738406598
C          -1.16866432384568  -18.23196309688710   -1.69340712302765
O          -1.19562415898192  -19.27430895451570   -2.31778024596557
O          -0.02397281220867  -17.55516338315269   -1.61063463900505
C          -3.59546282265863  -18.40855202376315   -1.08378025539424
O          -3.70751365796633  -19.55989966304266   -1.75621727894810
C          -4.72331989575632  -17.92734696045255   -0.44896718227154
C          -7.06063954420073  -16.44282400010650    1.28516289732109
C          -7.69887434145654  -17.62422820086354    1.05552181210133
C          -9.04659346535600  -17.86232449010712    1.38136754748510
S         -10.10193948192156  -16.66928377854995    2.11421878602035
C         -11.48656426401293  -17.72380775017637    2.16842114319369
C         -11.14561515460022  -18.96200369240754    1.63276582652883
C          -9.78796526414134  -19.02475837633418    1.20109861579375
N          -9.60073586794409  -20.27320837963164    0.70896234883526
N         -10.72789606704836  -21.00123562431450    0.79430334887999
C         -11.65482421611556  -20.25576553111155    1.33422127876059
C         -12.71097381492673  -17.23535612181730    2.71518771673965
C         -13.83994734939743  -17.94057363509898    2.82140196238931
H          -2.52801856388121   -3.61926962154934   -1.85067562495010
H          -2.05768063506461   -4.97466610820645   -0.70030617741509
H          -0.57857088999081   -2.42212210155615   -3.20568127230878
H           1.97614189024803   -2.53406143108689   -3.48991555330285
H           4.26283940408696   -3.10674656944717   -3.44293234909365
H           6.57072224881942   -4.12532116897785   -2.94719876650109
H           7.70532683030814   -5.83504597599613   -1.36784668388177
H           8.36669240906343   -6.21868839546427    1.18205608628165
H           5.57151630955224   -7.75450891657814   -2.22216577211191
H           3.94905285840176   -8.38227877790280   -2.47208555704294
H           4.92602854737765  -10.73151646387343   -2.31191256064990
H           6.51438185199899  -10.01027298747420   -2.07882017159697
H           5.66179331592661   -9.78234538185346   -3.60786273800435
H           2.23203111667184  -10.93705692758520   -0.47552188772782
H           2.84316274314267  -10.01531073605249   -1.83436141763690
H           1.14128596348895   -8.89923047141447    0.44246580261410
H           0.59366316351301   -9.21797162924938   -1.20446007732133
H           1.78094586807478   -7.94501195643334   -0.89210360457713
H           2.79118979027305  -11.28163632968044    4.29930180105574
H           1.93066988962602  -12.23740230176971    1.03343973562780
H           0.30346672662935  -10.57623321444280    3.02405702572969
H          -3.74129759398533  -12.45786545685450    2.50591318376376
H          -1.43911057643930  -15.87071024201496   -0.24672154869520
H          -0.09473309728971  -16.73886742576492   -1.09495179368560
H          -2.83167598156304  -19.78003379768519   -2.15196096668353
H          -5.62695525463701  -18.49918210527274   -0.56146903744702
H          -7.63411454596031  -15.66471685048472    1.77684689404637
H          -7.17569572795360  -18.46252231010844    0.62285154394848
H          -8.77112954330380  -20.68350864533927    0.31513257248607
H         -12.63665708762027  -20.65323916074534    1.48951508131272
H         -12.67994061141337  -16.21004601247261    3.06082971084578
H         -13.90698552117483  -18.96107237181296    2.49014545370946
H         -14.72764263231054  -17.50812966903649    3.24694616831087
