103
 SCF done       -188.382544701570          0.000447264469
C          14.75216293616257  -15.26180770619927   -5.33507764932289
C          13.54234877920968  -15.05450646651544   -5.86988426711688
C          13.10639592128670  -15.36337738464257   -7.20321862372393
C          11.82248460963830  -15.03845772325344   -7.46185732752381
C          11.13156885698634  -14.44852362210568   -6.36350463537908
S          12.19936772354750  -14.32456292274904   -4.97524926744617
C           9.83188462083807  -14.01907846469805   -6.32780227517088
C           8.86656383036443  -14.06553728451156   -7.37143298867605
C           7.65963196734181  -13.55688529364834   -7.03397900666766
C           7.57202062267144  -13.07321149133331   -5.69151662198696
S           9.13246842491221  -13.28838762330849   -4.89178215846646
C           6.45556831823713  -12.59589977699043   -5.08965251758216
C           6.39417107246837  -12.08583790948845   -3.73807267825234
C           7.39187466831949  -11.29025627449690   -3.25263450958249
S           7.13421103765990  -10.69932593743345   -1.66305390610512
C           5.62950109144065  -11.56081136678053   -1.59178152443640
C           5.34110202830146  -12.27501875654522   -2.76381603797084
C           4.18760240354185  -13.09500179875076   -2.79049501178909
C           3.93988110391383  -13.94373107641958   -4.01106363200673
C           3.04418884913839  -13.23015605957683   -5.02746755048225
C           3.31737666028924  -13.12674294090263   -1.70797030864979
C           2.08512072911672  -13.99530616017269   -1.74909456974498
C           2.28529644809505  -15.28619427013884   -0.95323630595315
C           3.60153023090260  -12.38138911942941   -0.53522956975590
C           2.92832579125252  -12.30674793549038    0.74590994849079
C           3.61392005484270  -11.52464461099049    1.63262786983331
S           5.05051938361755  -10.82224705552961    1.01798963712880
C           4.77953890070433  -11.61795563344743   -0.50083692272250
C           1.70100461152820  -12.94259966959769    1.17237034246335
C           1.53571639702026  -13.43981792606982    2.41629868753762
C           0.35376551630472  -14.05098097630420    2.90700464781456
S           0.37454099694818  -14.85409549886126    4.45549587371555
C          -1.29657541045015  -15.35749797469012    4.38012079820161
C          -1.85059822518731  -14.90132536965308    3.18095185919490
C          -0.92264733679778  -14.18116637108898    2.37216781500465
N          -1.60459991914229  -13.81092505831884    1.25788262612176
N          -2.87728935968149  -14.23391877759122    1.30386298623469
C          -3.05029697732868  -14.88504612744947    2.42518006460417
C          -1.83673551285288  -16.10437042955710    5.44095923796774
C          -3.13143449121064  -16.51198416038240    5.54346444077039
C          -3.61866081491161  -17.27446759418084    6.63031087799740
O          -2.74753397003764  -17.68568152949513    7.61487197350177
C          -3.49169806852996  -18.37820034631958    8.49333511613957
C          -3.40220683811270  -19.09269075191559    9.69009154958611
C          -2.20794497097943  -19.39178513759862   10.50821206641235
O          -2.20552962054366  -20.17223083977645   11.43631220968221
N          -1.10351468029436  -18.72095144450172   10.10835483361838
C          -4.72707841704147  -19.51832659275742    9.93898418163016
O          -5.57556256614373  -19.09197593620150    8.96044330448753
C          -4.83696612302086  -18.41176572213364    8.08611526137980
C          -4.91868147500914  -17.70337503284905    6.88516014020101
C          -5.15743206050437  -20.22246720234648   11.07850918987863
C          -6.36668070475528  -20.81244133511819   11.31898117139328
C          -6.72843648260721  -21.43276157779325   12.57925327169291
C          -6.13866690496630  -21.19453837110062   13.79329636025812
C          -6.53072731112639  -21.82460462142356   14.99189165288636
N          -6.80623230555520  -22.31694459106824   15.99197180347017
C          -5.13607625177193  -20.22808084663448   14.02931142353596
N          -4.37857975344749  -19.41794257177714   14.32481494428933
C          -7.91251929448853  -22.25130846981913   12.35184777942934
C          -8.35268486427819  -22.04359414149681   11.02259780048429
C          -7.43189157148447  -21.11456480535541   10.32837902368922
O          -7.53018875674067  -20.74765148714410    9.17997844784267
C          -9.47151921021088  -22.65322869265596   10.51025958970687
C         -10.18744566991722  -23.51424163980355   11.34841141155517
C          -9.73249462439760  -23.72538090697487   12.67151822037896
C          -8.60332509858422  -23.10522128862226   13.19149575688012
S         -10.75869221472410  -24.83437768177243   13.53056716619132
C         -11.77285988572715  -24.99285611182924   12.12088204746289
C         -11.36603332861233  -24.25608874279646   11.06062455988000
Br        -13.27329069914078  -26.11651988856123   12.18215647584434
H          15.53976767923392  -15.70945026257324   -5.91511004759447
H          14.97555481027706  -14.99073357595943   -4.31962497718563
H          13.78127629531684  -15.81664561698395   -7.90765317242753
H          11.33434788285870  -15.19936337695941   -8.40692325289152
H           9.10063141489996  -14.48115894011520   -8.33534917067247
H           6.80955787944891  -13.51160953484788   -7.69235187274130
H           5.55817879456470  -12.55327013666565   -5.68835223925071
H           8.26726008463476  -10.96827876344433   -3.78123398226323
H           4.90088847477134  -14.17816540318321   -4.47028383617613
H           3.48757718380874  -14.89475581249626   -3.73023658213472
H           3.44570645901634  -12.24992782332577   -5.27507112634892
H           2.04409576726728  -13.07942967015699   -4.62739824360632
H           2.96393908064046  -13.81745620230285   -5.93988150141189
H           1.82766025876827  -14.25108474580491   -2.77355712563067
H           1.23762664901205  -13.43701883070231   -1.35501023058039
H           3.10898806628210  -15.85975842100852   -1.37228983457486
H           1.38529748365482  -15.89656579000044   -0.98803100779677
H           2.51692820779279  -15.07029536757655    0.08655611762760
H           3.31222351514390  -11.28592911614308    2.63387637595272
H           0.88719964903816  -13.00943756383146    0.46950872004714
H           2.36938899126349  -13.42991332818488    3.10517773307346
H          -1.29905083227881  -13.25678584368434    0.47672204436313
H          -4.00509528565303  -15.31229754017576    2.65270894883399
H          -1.15114171631731  -16.36316334850200    6.23659360864977
H          -3.85294222539352  -16.25589105772094    4.78515516263418
H          -1.11648402089255  -18.08322866131688    9.33281575167655
H          -0.24593385069187  -18.86562417053840   10.61398506410427
H          -5.77675790422595  -17.51708902210101    6.27512403037367
H          -4.37815846533601  -20.31087136248155   11.82717866427471
H          -9.78576051192104  -22.47024677981128    9.49467505541962
H          -8.29316258900653  -23.29995507371016   14.20450890590403
H         -11.87380004256523  -24.23495195062565   10.11371544044538
