86
 SCF done       -161.418751306856          0.000364390388
C           6.30382427685180  -16.56105592504980   -3.45538825560986
C           6.46261870986346  -15.86077676166015   -2.32439327815569
C           6.82782159048659  -16.35455730334287   -1.02740146564073
C           6.90735864321772  -15.40484051751266   -0.06915514435717
C           6.61076993422683  -14.08853465638542   -0.52005629906986
S           6.23427070946319  -14.10638236794308   -2.23163067342262
C           6.60003345762201  -12.92657172300574    0.21444803356510
C           6.93132426287180  -12.75008836590003    1.58078215662721
C           6.85087620187472  -11.45990394820027    2.00221568335490
C           6.44587504042801  -10.54332427592998    0.99833866778797
S           6.15186301365941  -11.39070397365891   -0.50590639569139
C           6.32961737683115   -9.18007616769652    1.11685220589228
C           5.93290084065656   -8.35737520722729    0.05429251769231
O           5.52186653945707   -8.92574346516609   -1.11834945593359
C           5.90724382212688   -6.97867314292099   -0.10702301744690
C           6.18046931130425   -5.70941201019877    0.55840051348456
O           6.56770228004367   -5.45734371249437    1.67281313519073
N           5.89964080205492   -4.75938078954974   -0.42392427445113
C           5.49810452987099   -5.28016593412517   -1.65321372674159
O           5.25328202413594   -4.61733409217085   -2.63295080255024
C           5.49307585690538   -6.72132725602788   -1.43491597648649
C           5.25126725080827   -7.95289341385789   -2.03771344670748
C           4.83749968605629   -8.33144881658843   -3.32057139219454
C           4.68858137766710   -7.43753499716870   -4.35162819323549
C           4.33181874067981   -7.79871919573494   -5.64828993216190
C           4.36301130638795   -6.91318659746989   -6.71125539510543
C           3.96741625119249   -7.13936346123629   -8.04500811545528
C           4.14662774961932   -6.06199404559243   -8.87093667679206
C           4.71940576035952   -4.95238109968406   -8.22575459916794
S           4.98950691890829   -5.29304977902749   -6.53631318387315
C           5.08841990244648   -3.71540480555327   -8.74238547653033
C           4.84975227091875   -3.15957892953101  -10.01182336786864
C           5.33540333297282   -1.88744365285064  -10.15046030536431
C           5.99386165254074   -1.39551249158219   -9.00320876510311
S           5.97948379783092   -2.60166601800845   -7.73951354249135
C           6.56546538244957   -0.15189867220429   -8.81476623829528
C           7.21477492463917    0.19601845890657   -7.63051319973589
O           7.37839149529783   -0.74255760046501   -6.65056333341188
C           7.77267041539198    1.38920593366145   -7.17209509093339
C           8.02742630040603    2.78513250528711   -7.52299969268466
O           7.77782932468657    3.41651999759249   -8.51897572301798
N           8.67036448306463    3.29294594236358   -6.39350174203731
C           8.85774160222666    2.37894197306271   -5.35665173238050
O           9.39256991872076    2.62599958399004   -4.30556392975118
C           8.26690830206068    1.14534004728278   -5.87697019467360
C           8.01752765260003   -0.19307488739626   -5.57644017896243
C           8.32935459058005   -0.96187379466713   -4.44917950358604
C           8.12540529867595   -2.31934942604458   -4.36764165184785
C           8.44677118416373   -3.06797687407923   -3.23754657637750
C           8.36267080823668   -4.44091139555457   -3.13174829481403
C           8.64960463189762   -5.19713569810871   -1.97136219431264
C           8.50063001400639   -6.54208521629041   -2.12683185670967
C           8.10790358672826   -6.92647742201727   -3.43038832601985
S           7.91548828711394   -5.51017448084428   -4.44244589036123
C           7.87944480291068   -8.20923613322806   -3.88225594611780
C           7.94267105312212   -9.40835604336354   -3.11543527037523
C           7.62051815034268  -10.52723177887297   -3.79910306612751
C           7.29043300633788  -10.29870656308118   -5.17657513425906
S           7.45720225266779   -8.57025877176150   -5.53858570358134
C           6.90365710466861  -11.20443142860944   -6.08447426877957
H           6.45197261961262  -17.62619510864307   -3.46645252488664
H           6.02378428810892  -16.08912310172182   -4.37920907694249
H           7.01170770457953  -17.40293944351608   -0.87293474505002
H           7.16375199068326  -15.59824608399493    0.95733856893441
H           7.22762077114693  -13.57284378785080    2.20664438522450
H           7.07081989826902  -11.12733563915974    3.00119869388385
H           6.57647283425512   -8.69623113423248    2.04857106701701
H           5.99438855527040   -3.76710970778704   -0.26415779447377
H           4.68167861805864   -9.38925743217267   -3.48229870743890
H           4.89912686967865   -6.39296416436081   -4.15889622080714
H           4.02827832317137   -8.81808972635567   -5.84793580862281
H           3.55528748598797   -8.08236965807680   -8.35889963715736
H           3.90018280699720   -6.05160439175978   -9.91767281286359
H           4.31550816743347   -3.68997319131210  -10.77990939376128
H           5.23873064517745   -1.29155952686115  -11.04068623528348
H           6.50748504882586    0.59520351095766   -9.59002489568709
H           8.97825486446892    4.25250883774954   -6.33177759674195
H           8.78224244257406   -0.42490936039457   -3.62826910870975
H           7.70537202636991   -2.83577792734347   -5.22107131258803
H           8.80015086431496   -2.53779586211806   -2.36159970557372
H           8.94937237335836   -4.72465684034603   -1.05204686475934
H           8.67856240880171   -7.26064136311685   -1.34652366146655
H           8.21102407291130   -9.39520709460333   -2.07424452685972
H           7.58428200819483  -11.51722768721108   -3.38074192745663
H           6.81507964526039  -12.24213913024255   -5.81503651682570
H           6.67429287322165  -10.92889433688598   -7.09749066007365
