108
 SCF done       -195.391022125643          0.000888644619
C           7.82605272465783   -2.55256356675165    0.92369981800805
C           7.04027685639307   -3.26177408179439    1.74459282876302
C           7.02749238664475   -3.24529736758714    3.18026425318054
C           6.12228316003204   -4.07633508026973    3.74009142562878
C           5.34452233696830   -4.81633250289766    2.80347404716896
S           5.81625191646782   -4.40489179782472    1.16694460895888
C           4.35971093168781   -5.73390885205038    3.07465980306594
C           3.89559744647664   -6.15883035057087    4.34704152462255
C           2.91100877434907   -7.09072355278624    4.28936987198331
C           2.53421235039517   -7.46051445106112    2.96947008020559
S           3.48634632151800   -6.56792484119469    1.80024525320236
C           1.57978066148975   -8.37632117674617    2.61872116316106
C           1.25477897618492   -8.69627740777662    1.28905895980284
O           1.89251170129212   -8.07392735862239    0.25492484483163
C           0.33890389084889   -9.58786678478480    0.75460612875934
C          -0.72957769539771  -10.53404812749105    1.08273569428986
O          -1.15656704725593  -10.90296372649998    2.14866651627749
N          -1.19652938872096  -10.95010369027035   -0.16134817536055
C          -0.55767681393733  -10.38146453392532   -1.24705693845924
O          -0.81884709126602  -10.60625904217209   -2.40516036292879
C           0.44645654541055   -9.49286960710097   -0.65461096064188
C           1.41233548790833   -8.54412875233500   -0.92970657936737
C           1.89186197999833   -7.97021836048189   -2.14102823670184
C           1.55851424219539   -8.45494212285600   -3.35633841568531
C           1.96375785650228   -7.84538693117142   -4.60174768013879
C           3.09939278837774   -7.08410640981821   -4.65516191943911
S           3.44119623421693   -6.38694940863541   -6.18148958159277
C           1.99707421496538   -7.10610694927235   -6.82458283570166
C           1.29708846095873   -7.89035588908497   -5.89270085942190
C           0.12183579013255   -8.54799719962922   -6.33018326510465
C          -0.59907631314975   -9.46239118376127   -5.38360304076714
C           0.07197046639704  -10.83919890041149   -5.36420050505036
C          -0.32835739575293   -8.40805293130039   -7.64183527493123
C          -1.55234057660402   -9.16291426024419   -8.08647105032280
C          -2.82718498293761   -8.36305263195341   -7.80663579713719
C           0.34597753800852   -7.55757529547136   -8.55012432114824
C           0.08274622774023   -7.21413796316652   -9.93958876889607
C           1.07491523574389   -6.41082105206638  -10.44974946562183
S           2.31142248547793   -5.99650572935592   -9.35005402371366
C           1.53100903908604   -6.94398378191032   -8.11682125084721
C          -1.05442552352583   -7.57662011188169  -10.73236165759489
C          -1.09540266430450   -7.55357972335115  -12.09480476294983
C          -2.18428430787480   -7.94591785165549  -12.90097725757281
C          -3.30315210464132   -8.66984419895672  -12.56088319761755
C          -4.33308136992022   -9.05793528613973  -13.45445179861658
C          -5.29218786332874   -9.85595181839597  -12.90461677407495
C          -5.07460882517726  -10.14731382456394  -11.54073897944448
S          -3.63164460576026   -9.35488383065633  -10.97893020370016
C          -5.82693757258926  -10.94832569210938  -10.69443874168912
C          -6.99985012143487  -11.66748845052741  -10.98792767490687
C          -7.47517243569557  -12.39537314142726   -9.93279593542305
C          -6.70455770382012  -12.28201228777402   -8.75675490862938
S          -5.35132819747828  -11.21220961911806   -9.02863225586599
C          -6.94810194690448  -12.92025979041771   -7.55143483282652
C          -6.16086807806757  -12.75950756488802   -6.42095230229533
C          -6.36511190874670  -13.41957956427862   -5.21882467363880
C          -5.60440231759008  -13.27247089269399   -4.00951476396735
C          -4.59117756083710  -12.36922108016698   -3.75528859966431
C          -3.93364899062447  -12.26916285588561   -2.51914383335762
N          -3.37956474784500  -12.14563732388982   -1.51903692601504
C          -4.10838393682541  -11.41301443158684   -4.66721732660851
N          -3.68213903489703  -10.60639748848409   -5.36662698852270
C          -6.11810991840397  -14.23930759112142   -3.03757736355866
C          -7.20375632881187  -14.93336371934172   -3.62281011031710
C          -7.40985109767416  -14.43557584062745   -5.00065710027643
O          -8.27098107616759  -14.81459832140981   -5.77261230816300
C          -7.90260286505218  -15.91306542696515   -2.96371183031655
C          -7.50850957771705  -16.23082269987965   -1.65846940812653
C          -6.42012668878709  -15.53749168247808   -1.08309869902620
C          -5.71510737340103  -14.54283718767889   -1.75181546867075
S          -6.09321505223756  -16.08730571109378    0.53340990550186
C          -7.40480960994117  -17.22867162010209    0.41245491020965
C          -8.05759105054873  -17.19905698574625   -0.77321962490367
Br         -7.79447998453803  -18.34884413856870    1.86723336634477
H           8.55668517823852   -1.86827980436866    1.31771205624828
H           7.75271322893426   -2.64025446353797   -0.14480745993131
H           7.70113999902812   -2.60920956790109    3.72672825919787
H           5.97797369675122   -4.19092121384147    4.79981758580808
H           4.30335345691921   -5.76560627463128    5.26108847281140
H           2.43398112848928   -7.53413502478452    5.14540652067248
H           1.02994252882885   -8.89897359329594    3.38594905250893
H          -1.99009227586079  -11.57225606065965   -0.30246488153304
H           2.50799435457577   -7.09145415538925   -2.01660882288794
H           0.95539469213490   -9.34605199799924   -3.38508162226250
H           3.79605744228739   -6.91748529180631   -3.85724341202755
H          -0.60367576939644   -9.03417243297113   -4.38511475262675
H          -1.64212377164156   -9.59056790741139   -5.65452361012764
H          -0.37195866528342  -11.44350075833647   -4.57944710575506
H           1.14108720821269  -10.75407189640204   -5.17950754012229
H          -0.06327963479111  -11.34426199338725   -6.31869277247595
H          -1.62113158701675  -10.11444176493831   -7.56487017684730
H          -1.46688561962924   -9.40031027247849   -9.14624466351669
H          -2.94782366487492   -8.21302306325194   -6.73774748002573
H          -3.69618641034437   -8.90514200188104   -8.16995248702264
H          -2.79478084779546   -7.38334358235709   -8.27959075342424
H           1.10851621898354   -5.97994847537665  -11.43110845925326
H          -1.95491281693356   -7.83430719585894  -10.20495512843749
H          -0.22314019345963   -7.21867350047153  -12.64001614354723
H          -2.10884654663767   -7.69586910113236  -13.95266355395082
H          -4.32876203009730   -8.73991943916831  -14.48238199766295
H          -6.13575856308615  -10.24713044150546  -13.44401572390243
H          -7.46107619374070  -11.63782378537651  -11.95885699837592
H          -8.35579777653288  -13.01173351344545   -9.96565827550319
H          -7.80125084724562  -13.58143795116364   -7.50427896070798
H          -5.32576222629459  -12.07395406373257   -6.49659141642458
H          -8.72620182372101  -16.42212645558365   -3.43946486474727
H          -4.89110412646366  -14.05037519269139   -1.26484332821520
H          -8.89099302522006  -17.83295635592524   -1.01574894143969
