83
 SCF done       -130.188737891637          0.000486111970
C           2.49937793257931  -11.55783834257256   -7.87850116697761
C           1.63842566554724  -12.12977400340895   -8.73046996982988
C           1.94848476552618  -12.93362045279492   -9.88176773348019
C           0.86866934772772  -13.36163483848685  -10.56948423391986
C          -0.38138550467883  -12.94026741159285  -10.02655069733918
S          -0.12227767191121  -11.97122708941541   -8.58595829575933
C          -1.63939172140045  -13.21538651936655  -10.49522729676011
C          -1.99495911406537  -13.98826251842127  -11.63335312381472
C          -3.33291439564458  -14.09661547817571  -11.81681031057988
C          -4.11377759388177  -13.41814099010603  -10.83469791778560
S          -3.08520569437473  -12.61128620139483   -9.67870507853467
C          -5.46974166332992  -13.37879279367743  -10.72890023008816
C          -6.09934858620848  -12.67613795194731   -9.65594168514488
N          -7.43245361303566  -12.75226146946382   -9.53786129343245
C          -7.97103094087946  -12.13370426244339   -8.50735562745633
C          -7.22098770278314  -11.42625981676727   -7.57812653204760
C          -5.83842885846758  -11.36094275557234   -7.79444882710828
N          -5.29895975373386  -11.99449190339759   -8.83207478495720
C          -4.97927998089825  -10.59762590865438   -6.90688505493676
C          -3.72268554192506  -10.26269510370572   -7.21910847907981
C          -2.84140085602715   -9.49590072135527   -6.35765639181910
N          -3.25502043892233   -9.15592733392017   -5.13343341258262
C          -2.39967927586274   -8.48018903928286   -4.38565027170554
C          -1.13641631414893   -8.12479763691562   -4.82520994459228
C          -0.79393169543979   -8.50544875509483   -6.13135522417143
N          -1.66060769905489   -9.19252628242002   -6.87757107833077
C           0.48381988183352   -8.17901324285196   -6.71748680722531
C           0.78307041305829   -8.51933656538264   -7.98673098875126
C           2.01312740358174   -8.26022066416101   -8.64638057850515
S           3.32385778675459   -7.42782523614986   -7.86475721181596
C           4.32816315722146   -7.56029985897755   -9.28346547537731
C           3.67077352213763   -8.25310544412037  -10.28866790062953
C           2.36187327039352   -8.62239458068602   -9.93799317492197
C           1.44303446995996   -9.33782589437547  -10.87363189402231
C           1.99129694321118   -9.41915069731271  -12.30171490611332
C           1.15126560182668  -10.41890068095162  -13.09324050191276
C           3.47843850317512   -9.79402499083457  -12.25054012216277
C           4.06790007235221  -10.08887271951826  -13.62743924155973
C           4.26037881197897   -8.64519759240904  -11.60340988737684
C           5.60603695919047   -6.93380473931571   -9.22893948059983
C           6.45225878459826   -6.68978285242876  -10.24815918764665
C           7.70095829368618   -5.98722293912281  -10.05559115362700
N           8.44591715537440   -5.79534002891255  -11.15003800476175
C           9.57787339583799   -5.13513474363584  -10.99483351086695
C           9.99932319086053   -4.64704565350115   -9.76897668801761
C           9.16152990894026   -4.89727017725189   -8.67539055734487
N           8.02548311107320   -5.56885271187928   -8.83388249195636
C           9.43852863028648   -4.46175351978019   -7.30990368470540
C          10.47390100851935   -3.72968072208764   -6.92028158379122
H           3.56148180013953  -11.67160480262831   -8.00725753927633
H           2.15974429404124  -10.97000754499032   -7.04577292094564
H           2.97036220961588  -13.15354650468848  -10.13744492275259
H           0.91438742820605  -13.97413363416977  -11.45307103359188
H          -1.25872744913186  -14.44201872445100  -12.27388257507836
H          -3.80229676712637  -14.64347593082928  -12.61592656325911
H          -6.10243112338599  -13.89674808750406  -11.43092152843999
H          -9.04842042816806  -12.21059773176381   -8.42271313188493
H          -7.67868156709342  -10.93119971081714   -6.73750860141827
H          -5.40785089961886  -10.27432754419831   -5.96854777724115
H          -3.29281962872489  -10.55458998632238   -8.16397466493423
H          -2.74913003341697   -8.21655990665204   -3.39432024468219
H          -0.44922617126681   -7.57692962901453   -4.20069741718895
H           1.19443826278454   -7.64851926429780   -6.09797391012788
H           0.02845279738077   -9.05057143803691   -8.54968514351201
H           0.46862392481455   -8.84338319806427  -10.88080498924866
H           1.28542371299966  -10.35328223392033  -10.50206894357044
H           1.90318409265892   -8.43439512639468  -12.77461073304463
H           1.32007972430413  -11.42931864408207  -12.72539397837845
H           1.39129356043120  -10.38629630683551  -14.15207071567298
H           0.09384254871723  -10.18895334385173  -12.97931880673761
H           3.58379181549066  -10.68640649657633  -11.62244959929563
H           3.87243206996902   -9.26434835117410  -14.31007081750684
H           3.64748000934878  -10.99694482313372  -14.04964568015546
H           5.14543996343820  -10.22022000526006  -13.55162923087355
H           4.25370249065410   -7.78475740631077  -12.28078399773272
H           5.30093906499665   -8.94502164449696  -11.45919911935964
H           5.90562539246830   -6.57667358331817   -8.25138572183339
H           6.24705462127570   -6.96296015382751  -11.26903906111358
H          10.16675786166153   -4.99239402582953  -11.89329822771210
H          10.92563383489102   -4.10733146458853   -9.67058737742258
H           8.69305043636162   -4.78672624528938   -6.59709261965391
H          11.23165953392329   -3.38101486078827   -7.60175753321721
H          10.60144924660879   -3.44517981033597   -5.88984517721728
