98
 SCF done       -174.921971318995          0.000527269049
C          12.85731866255700   -1.12458481425201   -3.43566714238171
C          11.60932519794130   -1.06601064672275   -2.95337741722376
C          10.71762141346832    0.05963433972158   -2.96010219888269
C           9.51312280692291   -0.17739952727882   -2.39907584498390
C           9.34532209256720   -1.50224168550233   -1.90179477993752
S          10.80109560918304   -2.44167078873842   -2.18462727605716
C           8.24070916648163   -2.02510099968118   -1.28222476849733
C           7.00841898898645   -1.37336446569688   -1.00339565637741
C           6.10311656016218   -2.15073070526093   -0.36600721165344
C           6.54445971880232   -3.48212285249945   -0.09312126963864
S           8.19473199563348   -3.67746184489205   -0.68994137279108
C           5.78164515062319   -4.45429150317607    0.46864679236226
C           6.19090129507699   -5.79570429793300    0.79260746657348
C           7.47634020643697   -6.04725619305614    1.18873581395005
S           7.78758766433307   -7.66615761944012    1.64762547753664
C           6.14146560486178   -8.08053608984702    1.28437270041821
C           5.37772450211785   -6.99854383860093    0.81784667416952
C           4.04396437798938   -7.24486965816237    0.39718740838588
C           3.25333542221770   -6.13541098286038   -0.24967368818670
C           3.78971854878891   -5.82417808543932   -1.64824953743215
C           3.49606230579844   -8.51617195077357    0.50950805098379
C           2.09234311318661   -8.81359532364568    0.04743750799282
C           1.04590195320027   -8.41329396048410    1.08908691584280
C           4.25651707400406   -9.57880765248014    1.05394485670290
C           3.92114858419188  -10.96630400851804    1.25414788557720
C           4.97989724896283  -11.68935420536595    1.70078141696320
S           6.41827960331980  -10.77365051767670    1.94602095307783
C           5.59404684074479   -9.34663398896041    1.40616283471119
C           2.62942517368271  -11.62890185110800    1.04829165754484
C           1.61583674451864  -11.58364748248894    1.93463706971157
C           0.38324252670179  -12.25753483089490    1.74374913909097
C          -0.69411597823138  -12.14528146486835    2.57343066717480
C          -1.94926623488510  -12.79851006348449    2.43447932930283
C          -2.85125127043068  -12.48146749804544    3.39843502932849
C          -2.36854288999708  -11.55592924494064    4.35812927164918
S          -0.72168789902319  -11.10773703418504    3.99832534442166
C          -3.04584104213688  -11.03169998326026    5.44140324448779
C          -4.37599136589351  -11.30488553805307    5.83373302069841
C          -4.76307935804750  -10.62077673232182    6.94531234026644
C          -3.75660171294024   -9.77895220834431    7.47958689622045
S          -2.29653138336323   -9.87587317183669    6.53632675229751
C          -3.85655493760880   -8.96878621734424    8.58833911172344
C          -2.77421314549696   -8.18956714374002    9.00628606594243
S          -2.75818231879181   -7.11274158590364   10.38403593504477
C          -1.08541126592654   -6.76739788438464    9.92939698444079
N          -0.71550744565292   -7.44245442219699    8.85808577002499
N          -1.61493747036745   -8.20491141869769    8.35537130026478
C          -0.15672700443043   -5.91322713688973   10.54964956641717
C          -0.30580587797729   -5.09723049104748   11.63782630037255
C           0.72505348802996   -4.24571761755854   12.20365255588369
C           2.03918188186684   -4.16197924976935   11.81922962040269
C           2.98398501140663   -3.30687998112275   12.42408146746547
N           3.80109691154530   -2.63352253901007   12.86869410923601
C           2.65794779501796   -4.90341040486613   10.79057195917276
N           3.25737252051144   -5.45750452497166    9.98276985593908
C           0.12178767935076   -3.48685309565549   13.29478934227916
C          -1.23326364302348   -3.87580340662384   13.42558029116066
C          -1.54507325431368   -4.89900562436548   12.41079309415424
O          -2.61940168844401   -5.44849160914284   12.26107100950131
C          -2.07429395736870   -3.34150359213870   14.37069379607526
C          -1.55291063161752   -2.37019207694300   15.23165440054992
C          -0.19852602994270   -1.98483615141812   15.09391858773765
C           0.65143582513097   -2.52746408248020   14.13808377324261
S           0.24095738647306   -0.76968174977995   16.25603046762486
C          -1.37815098822329   -0.79696216892029   16.90199998316520
C          -2.20722729842227   -1.66933626700385   16.28143784145671
Br         -1.82188459557263    0.32972589219480   18.33434660434759
H          13.30840810921122   -0.26371552040077   -3.89681397926086
H          13.44394011155718   -2.02304508759226   -3.38003675315895
H          11.02488761191910    0.99824819165626   -3.38644120578876
H           8.72755775454959    0.55307603053660   -2.31813300795184
H           6.83402850020790   -0.35193593824932   -1.29093045317426
H           5.11787245511814   -1.82762880305163   -0.07803328616795
H           4.77407114913878   -4.16401254874381    0.72340102532198
H           8.26393704968371   -5.32855086148856    1.29843156105925
H           2.20522855258409   -6.40713548890730   -0.33560057101004
H           3.28630877489498   -5.24362940540521    0.37351483522852
H           3.71581483656365   -6.70661164723742   -2.28054551230097
H           4.83194297905571   -5.51937099814676   -1.61013578452882
H           3.21243621820162   -5.02255112655297   -2.10397265847452
H           2.00718546638529   -9.88559240136999   -0.13675571619897
H           1.88659234122639   -8.31159275758072   -0.89903713009380
H           1.24125712054535   -8.91228042289171    2.03348206102350
H           0.05130984254356   -8.69547315782112    0.75030672285364
H           1.05909330223459   -7.34184657485021    1.27140932225591
H           4.98692946234077  -12.73734671684955    1.93085582378147
H           2.54337850498830  -12.25522772017460    0.16672080600271
H           1.72020485979069  -10.99695852504507    2.83774382718887
H           0.28499619827740  -12.89574568144264    0.87491462013603
H          -2.13543045126977  -13.48071234181110    1.62369526975059
H          -3.84797461618088  -12.88097818269189    3.45030910949210
H          -5.00856550480617  -11.98855984734332    5.29601759961831
H          -5.73528996041603  -10.69061985811857    7.40054482197935
H          -4.77875684064652   -8.93153909290048    9.14638664173469
H           0.80279805994089   -5.93599815781297   10.04799701217524
H          -3.10173693202826   -3.66206285077396   14.44297605744159
H           1.67440198516521   -2.19705771124930   14.07540018137530
H          -3.23749090597152   -1.81382927507512   16.55090461269668
