86
 SCF done       -165.740778518592          0.000488906787
C          -0.51421969548768   -0.08997419534732   -5.77440967082054
C          -0.15267327246247   -0.17562282830769   -4.48682545570345
C          -0.21137402770501    0.85407651260586   -3.48935447646236
C           0.13296970033448    0.44614114815831   -2.24784474562974
C           0.50481971059733   -0.92426341132368   -2.16352076574070
S           0.44022869162742   -1.67005447602672   -3.74577305175614
C           0.81648062519333   -1.63442458456404   -1.02834008736077
C           0.64021006181580   -1.22707259038777    0.31849888058426
C           0.87727400663378   -2.21255402719790    1.22055421352626
C           1.32858677879327   -3.43531915642824    0.65216941448632
S           1.39349960535063   -3.28731613661550   -1.09122707749386
C           1.56125930707992   -4.59446682643081    1.34269983183828
C           2.20106216740928   -5.76192986217135    0.87287968174935
S           1.67573499962256   -7.32219324641592    1.43387094980631
C           2.95588820270047   -8.14239293019110    0.59492549440120
C           3.75936512999237   -7.22075708791146   -0.07259039991218
C           3.32270504099273   -5.89860921924932    0.05343739010226
S           4.19181749198755   -4.47787130522513   -0.50772162024230
C           5.71390992707512   -4.99802060981294   -1.23802694998162
O           6.53353979129638   -4.14637764683158   -1.45549689176495
C           5.97579396370482   -6.41761590046969   -1.68681938160633
O           6.85723192224789   -6.63524762049966   -2.47512389061253
S           5.07915320993338   -7.80411793040499   -1.07027422734573
C           3.06206257325644   -9.55010240131805    0.54131352008128
C           1.97926774892789  -10.36764921162229    0.63704685784542
C           1.97959746044500  -11.75047251143082    0.36325567386441
C           0.90544094394080  -12.34513638559686   -0.24985112479896
C           0.79629961501922  -13.64574144143541   -0.80138399901601
C          -0.22115611941822  -13.78885775963374   -1.70022384059104
C          -0.95957325076705  -12.60313434661147   -1.91175526162852
S          -0.45728621388178  -11.36610346817849   -0.78245676146248
C          -1.75628706245457  -12.23273965873197   -2.98036537806975
C          -2.06584345640409  -12.91542831001146   -4.17403422763734
C          -2.49657705039574  -12.09445279751999   -5.17824884345703
C          -2.52768808879398  -10.72140310308132   -4.83532922909742
S          -2.20458737024936  -10.54436477999661   -3.12633239382193
C          -2.75678210881222   -9.65530353892340   -5.67810988326664
C          -2.54873299142679   -8.29717966422059   -5.39867970491428
S          -3.46245984414993   -7.10910471699107   -6.30314521279549
C          -2.83620102599534   -5.77231986708771   -5.36518447370776
C          -1.92001026049760   -6.25112136513896   -4.42309239222606
C          -1.71530884585470   -7.63686334371047   -4.48121632443391
S          -0.26930053612416   -8.43490824474643   -3.86508448586755
C           0.43428322764951   -7.43757423272583   -2.60602713385065
O           1.48822245887448   -7.77852293800324   -2.12488014686574
C          -0.23875347085540   -6.19110404490430   -2.11925300503285
O          -0.01185416055391   -5.76104525078310   -1.01723568520748
S          -1.21138744877890   -5.19398875250700   -3.20683180419619
C          -3.28465297981532   -4.48019361458141   -5.68426041595646
C          -3.12100595412218   -3.34232188339349   -4.94055500443887
C          -3.55918564637036   -2.07939338814595   -5.34561535467299
C          -3.51518579108629   -0.96864109627454   -4.53428673244664
C          -3.86463648711539    0.36017074865221   -4.86996272788972
C          -3.73017970554712    1.25080135122967   -3.84916130096487
C          -3.27927534031007    0.67083484542754   -2.64002627313766
S          -3.02659961214231   -1.04935306743703   -2.85149472628817
C          -3.04149557495905    1.29096671431430   -1.43509142866000
C          -3.16047828530789    2.67269875151843   -1.12780980128398
C          -2.81233750981590    2.99532656466860    0.13882162972827
C          -2.39296908901499    1.88144612111246    0.93917074335318
S          -2.48884470552480    0.40017832580114   -0.03080275815110
C          -1.97671843319584    1.89466355650504    2.21365749111377
H          -0.88422810429057    0.83502525025098   -6.18006935270322
H          -0.44781413486916   -0.93334662243745   -6.43655896035216
H          -0.51933480008881    1.85201355509755   -3.74761287637607
H           0.14696245137138    1.08241631186245   -1.38094937495939
H           0.30166940709069   -0.23946138716075    0.57355910301646
H           0.76761854398105   -2.10625991460799    2.28549647198622
H           1.16530512803005   -4.64835565467752    2.34924619926765
H           4.02701445006779   -9.95439336224578    0.26500711770070
H           1.01035922475130   -9.89905778468178    0.76958018486223
H           2.88623858195134  -12.32487475601890    0.49303089818329
H           1.50888535231503  -14.41626601646250   -0.56439474530261
H          -0.41825511197389  -14.68767675126832   -2.25713952763273
H          -1.91551660016445  -13.97502520589535   -4.27974525643707
H          -2.72292027939570  -12.42596470911170   -6.17628782702136
H          -3.18647929334406   -9.87906402457372   -6.64616259473869
H          -3.84713770105225   -4.40944348346404   -6.60720037370669
H          -2.65026794952633   -3.39965244949483   -3.97029487420559
H          -3.95132705155472   -1.95510786312749   -6.34636705235535
H          -4.19714066874053    0.61608550771051   -5.86077874934825
H          -3.94559039037328    2.30137259828283   -3.92954408208780
H          -3.49608122992854    3.38217977903843   -1.86338790280274
H          -2.83179216571017    3.98929200357008    0.54906446747514
H          -1.93235175720196    2.81582922105763    2.76715243548957
H          -1.68261884773711    0.99450789560816    2.72162142939038
