78
 SCF done       -150.804179969045          0.000479817886
C           9.19646348757030   -0.43463874165753   -6.16180760359694
C           9.02397804683154   -0.51390851253774   -4.83418998761797
C           9.65321441604556    0.27467506241036   -3.81628941642091
C           9.28173647120227   -0.04493814263601   -2.55467232844378
C           8.33782962472747   -1.10352441462849   -2.47469861917694
S           7.92877312168508   -1.67909374780281   -4.07287457295706
C           7.80357622609757   -1.65451347191547   -1.32634841954090
C           8.07075235008371   -1.29910433290361    0.01181558195485
C           7.41578158069646   -2.06925241040637    0.92897376229397
C           6.59687366685644   -3.07348761649984    0.37044524203646
S           6.66824936462462   -2.98860811538331   -1.37674550008003
C           5.90080710666546   -4.01916171911604    1.10270479378395
C           5.11585664564286   -5.07086185484365    0.65601328630350
C           4.59779386531029   -6.10337417912234    1.46028426918199
C           3.93397692486123   -7.03548650339750    0.64992363966491
C           3.99641418008606   -6.56392038984199   -0.72739154220335
O           3.56041610051781   -7.01905502466061   -1.76062584188161
N           4.72888195007029   -5.37734585144639   -0.63338988848521
C           3.58001960987870   -8.12178239596818    1.46276290456704
O           3.98505645849659   -7.84446379292876    2.74863077335590
C           4.62110027619466   -6.60850868584680    2.81207723498472
O           5.05817347157941   -6.16724410143715    3.84011401318035
C           3.03220033675579   -9.35475113189430    1.17405966320214
C           3.03054308868361  -10.40465121887400    2.09125217622810
C           2.62271249857730  -11.73045318124428    1.87977601969055
C           2.93483627493487  -12.58036108264363    2.91495721866894
C           3.58907908300103  -11.94092912036826    3.97517307831605
S           3.74905019235676  -10.23239670243922    3.66858087798678
C           4.20943587480849  -12.50231827713871    5.09753831897651
C           4.41616453606544  -13.84574688113595    5.42639571020605
C           5.26934264974651  -14.02857827520556    6.49044630140743
C           5.75438447667449  -12.83704414380535    7.05098565027722
S           5.04647078416164  -11.46702912629209    6.22206138722584
C           6.76966397085726  -12.71941807945893    7.99728521520714
C           7.27005794730715  -11.54829373381367    8.53819400184909
C           8.51399523853630  -11.36052750892864    9.18038118686703
C           8.67108552363696   -9.99783842269087    9.46736210779734
C           7.46419616129913   -9.29026157297977    9.06045577608372
O           7.13681905177067   -8.13093777260207    9.16070809071065
N           6.68574970539671  -10.29494039717582    8.48981281865443
C           9.98094386613276   -9.80048893289552    9.91268440691964
O          10.62026949091247  -11.01465655854366    9.93284200584313
C           9.76155617542418  -12.02279048550782    9.49201683905427
O          10.11324130097546  -13.17014438078258    9.42713963717204
C          10.63998223526684   -8.62513732687079   10.21865648303253
C          12.00417240551669   -8.52637147364554   10.44501629255933
C          12.72129803076913   -7.33953089128185   10.69901030679098
C          14.07226256414986   -7.51755726528305   10.78341024507504
C          14.47491481148050   -8.85762869721738   10.59900996712240
S          13.08160658521295   -9.89109077686919   10.34800340853419
C          15.76897640220909   -9.34690855735257   10.56992776096895
C          16.96962391416946   -8.60394345069712   10.72953988438404
C          18.09935815330595   -9.34128597644688   10.61839104322959
C          17.86947895903720  -10.73248737487096   10.36208884369593
S          16.12467453493406  -11.02985729643142   10.28172440984242
C          18.78377931502405  -11.69982747148092   10.19425550322370
H           9.87369886136087    0.28639632786078   -6.58431823299256
H           8.67102597201890   -1.08121523548001   -6.84031337605556
H          10.35815766545344    1.04467155641377   -4.07421121215560
H           9.65538712839727    0.44153721208919   -1.67138403871694
H           8.73951284291470   -0.49707961962787    0.26624492193960
H           7.50362010396476   -1.95261226999031    1.99441643039570
H           6.01526968704162   -3.97148493163836    2.17773109685127
H           4.94182707276413   -4.81486776701251   -1.44276737668479
H           2.66885812374706   -9.52175108241330    0.17211483723978
H           2.14020688212294  -12.03615944231147    0.96839946429712
H           2.72268310604164  -13.63458109201086    2.91444173856743
H           3.97450799943260  -14.64855514589490    4.86399326455917
H           5.57270293335817  -14.99098366988038    6.86246038423238
H           7.28692867334173  -13.62671991730630    8.27706501088827
H           5.76536525046671  -10.10753191717241    8.12340940814991
H          10.04169370607406   -7.72630388077550   10.22536117200544
H          12.22118006351208   -6.39269461472518   10.79903140432006
H          14.77474431346270   -6.72349302773998   10.96071982550611
H          16.95391125077697   -7.54543962204448   10.91833936763344
H          19.09897012887114   -8.95447382788129   10.70531325048100
H          19.83497624413219  -11.47718249922986   10.24603293396207
H          18.49955090622759  -12.71785304581523   10.00106530776738
