87
 SCF done       -141.187016681700          0.000678310531
C          12.46833912718265   -1.10851759762375   -7.77764308027983
C          12.05232153035079   -1.78477763301463   -6.69813224667797
C          11.14151624122887   -2.89293297948023   -6.65327490952242
C          10.90929187516964   -3.37484188995436   -5.41246208064598
C          11.61148165938093   -2.69616656605660   -4.37727401062746
S          12.58666967025583   -1.40570012590430   -5.05265442528164
C          11.58026570377005   -2.96499073379835   -3.03001051864179
C          10.84585681049872   -3.97442501638333   -2.35874129565836
C          11.03760567800106   -3.99062526125350   -1.01467040545872
C          11.93558330202436   -2.99942701884030   -0.53438751805566
S          12.51839275655457   -2.03152533235344   -1.87658261686659
C          12.31782203245695   -2.84786628005907    0.77315063964331
C          13.18408501335751   -1.88158754860220    1.31009269093412
S          13.65139050773355   -0.46993804008233    0.39594580319142
C          14.43710195100546    0.20400754970736    1.77050025185444
C          14.37037026142321   -0.58567156953898    2.87153177218411
C          14.99534739756972   -0.22740250749205    4.17955128710444
C          13.67877533907627   -1.81380974164158    2.62352411700214
C          13.60293194745280   -2.83040690628274    3.62088263355103
C          13.47270179547558   -4.16714447343904    3.42198305051998
C          13.47100191324732   -5.15175963241422    4.44710829464397
C          13.40423373929831   -4.92450937359451    5.78526255748151
C          13.47795455657520   -5.93134017331182    6.78140562440863
S          12.63313809665051   -5.68848064457134    8.27663051172327
C          12.99880698736130   -7.27719445221166    8.87257670256440
C          13.76866850091301   -7.97480230751217    7.93377924262520
C          14.09264761710752   -7.18961092757668    6.77361537380755
C          15.05238724579566   -7.68578069218569    5.85186407225571
C          15.67725532261520   -6.87931355029308    4.87525141410213
N          16.29809022280211   -6.29236980541251    4.10880811054525
C          15.52375981440928   -8.98091847169249    5.97833012631845
C          15.09076972720256   -9.79872087645971    7.01962618871302
C          14.25409788797153   -9.31122205175578    8.00850036831825
C          13.92590164264354  -10.21319500166462    9.04105944164408
N          13.70365903220120  -11.02091600529976    9.82772186141971
C          12.62304248983995   -7.73792202638271   10.16571376569177
C          11.95130985599881   -7.09240146768838   11.13748360819138
C          11.37783211748409   -5.71891926250384   11.01377327843276
C          11.77295794731013   -7.77274356093616   12.47444937622913
N          10.39719886586769   -7.82885619361707   12.89331659874040
C           9.86277066469030   -7.05080481796747   13.85825689425586
C           8.54326039856231   -6.99891319001136   14.17469618355782
C           8.04361929819348   -6.21842329608501   15.23572964411379
C           6.73563570139219   -6.17156854542518   15.62879761781623
C           6.18985938180955   -5.41258912918220   16.69552694128416
C           4.85443349344606   -5.57561020663917   16.87950741912396
C           4.24970739928203   -6.47797260171059   15.96728393882311
S           5.45195333793896   -7.10549866438909   14.85632947143012
C           2.93101652379559   -6.85677648511115   15.91024556290902
C           1.87036878903058   -6.42952695526610   16.75392163171821
C           0.66928588285719   -6.98090407045894   16.46879313402492
C           0.68270254678556   -7.89763732486287   15.36590275782438
S           2.32825961285530   -8.00214295215587   14.72028225797298
C          -0.34765691780623   -8.59117414064606   14.86175723793922
H          12.11897595305992   -1.37358646915838   -8.75996232411505
H          13.15824924459264   -0.28848635963431   -7.69985595740859
H          10.70240871862636   -3.27840914875386   -7.55643389548926
H          10.25571670665094   -4.20120884331590   -5.19547469615603
H          10.20399560713468   -4.65651785208416   -2.88708550686094
H          10.56805983275796   -4.68617788373158   -0.34092712830088
H          11.88139764639133   -3.54147413873724    1.47925458369006
H          14.91526643234885    1.15944576889048    1.67769372896257
H          15.48108623388974    0.74244111703673    4.10968900457312
H          15.73891610646480   -0.97166559367447    4.46197600064408
H          14.24108830280640   -0.18107774044428    4.96489069030332
H          13.74970464671748   -2.48006382456872    4.63321846685001
H          13.45173278714439   -4.55031279176669    2.41236339352612
H          13.51263396027165   -6.17725493190328    4.10510428111101
H          13.20234313335675   -3.92660063015858    6.15067620323413
H          16.24907667110025   -9.35249987235850    5.27030633836672
H          15.44438732495094  -10.81700050530160    7.08298451016321
H          12.97537277728048   -8.73471018069507   10.38924333434796
H          10.80746567898863   -5.45748925217532   11.90183097796650
H          10.72030147500281   -5.64582884118951   10.14724894052027
H          12.17127490620433   -4.98177616599253   10.88146236727129
H          12.33159033709685   -7.21924217128609   13.23712845926131
H          12.17675638402518   -8.79000572082145   12.42772382972464
H           9.76264714432899   -8.34486033764731   12.30269709997426
H          10.57839561092841   -6.47215257853425   14.42874721380114
H           7.83359358779657   -7.58797075281218   13.60984033070764
H           8.74825391145728   -5.61446088307869   15.79382313720326
H           6.81245991840668   -4.77074372811891   17.29490663010630
H           4.28347895618027   -5.07868383229005   17.64342353129413
H           2.03853139247112   -5.72409828519484   17.54885133180073
H          -0.24340392981122   -6.77718030739884   17.00059739288298
H          -1.33166259629558   -8.49661581449399   15.28588677407453
H          -0.22774515918666   -9.25646291931340   14.02677460777641
