100
 SCF done       -181.394036192242          0.000257208048
C          14.74956670721969  -12.78699940287840   -8.31786843969178
C          13.48367518177832  -13.19021016261303   -8.14648805878525
C          12.97894636102332  -14.53421075712941   -8.19023445319165
C          11.64798394490174  -14.63372943077866   -7.98831832512261
C          10.99304135375730  -13.38538914678900   -7.77192285622210
S          12.14494206858120  -12.07403342100894   -7.82496470864694
C           9.65078447677984  -13.17581896747920   -7.55649861725768
C           8.61784252807460  -14.14618249976450   -7.51377047561694
C           7.38727017787446  -13.61622295341941   -7.30252741232567
C           7.37328159869131  -12.19706882195606   -7.17638928618656
S           8.99075313523217  -11.56592038211769   -7.32580468007099
C           6.23833513647320  -11.46751013721570   -6.92257324009711
C           6.08047703500688  -10.07492121516903   -6.82579446191470
O           4.88463078670174   -9.64574313334387   -6.31748576813731
C           6.83927599112644   -8.94809147238472   -7.13883836023556
C           8.06464287511965   -8.46515001280397   -7.77191477294848
O           8.96535164950551   -9.03979022190726   -8.33257384899212
N           7.98028556737919   -7.07796777124475   -7.65657306834901
C           6.80480662007192   -6.59646597527663   -7.08867415634516
O           6.53717744611152   -5.43597319225826   -6.92801391386762
C           6.05932364658618   -7.82107860479496   -6.77496014549947
C           4.85635912855526   -8.28314792483784   -6.28100677450528
C           3.70212124236709   -7.58764737966883   -5.84170846508870
C           2.58253205932490   -8.22109917945125   -5.41265006045793
C           1.39273534054710   -7.54147887053390   -5.04774374026635
O           0.31036623402460   -8.26542827439803   -4.64092208959173
C           1.03481623853385   -6.20675003979546   -5.05616516131794
C           1.50734868108885   -4.85037472056588   -5.33078677221914
O           2.57707341857607   -4.43749275145141   -5.69404374041357
N           0.38825584661367   -4.05336500323489   -5.07286450992212
C          -0.74748160984175   -4.74058828141229   -4.66956722969413
O          -1.81633848797724   -4.23523225936756   -4.42162682850210
C          -0.32351499571688   -6.13922694635414   -4.64933152451679
C          -0.73505672429710   -7.43262458785910   -4.39873136690505
C          -1.98993991557420   -7.97545328287439   -3.98869275714128
C          -3.09283558180979   -7.22014121302799   -3.84489033491720
C          -4.37546373406055   -7.76109169085071   -3.39999051412908
C          -4.40616524209068   -8.44732106965582   -2.19492399659277
C          -5.59216156238579   -8.93168548479720   -1.62454513807817
C          -6.80468752577623   -8.75529551050670   -2.29103275570470
C          -6.79150163603159   -8.11033408545056   -3.51076176743090
C          -5.59309318737643   -7.60677134998172   -4.08703600530109
N          -5.87320047249638   -7.07174965938645   -5.31670491377253
C          -7.23162466578573   -7.20081930382407   -5.55455335241667
C          -7.84069189169420   -7.83163023221502   -4.44635658577129
C          -9.20545984038616   -8.08365371534893   -4.41911006182317
C          -9.96394913220120   -7.70004206913452   -5.50533214014001
C          -9.36746671052252   -7.07775517632549   -6.59881352063636
C          -8.01016248622907   -6.82138529433862   -6.64215445474552
C          -4.89246584866386   -6.59501904148486   -6.27045069642994
C          -4.84839156773974   -7.50342385180171   -7.50937726032795
C          -4.45575238458482   -8.92986120730842   -7.14114147120610
C          -5.10752029126731   -5.11676698632994   -6.62570215464240
C          -5.08518306695021   -4.21734703607300   -5.39517915607573
C          -5.56829517933843   -9.59296329947069   -0.34720312263041
O          -4.39588893004951   -9.73461002505173    0.32377455861926
C          -6.57330871056385  -10.15317209629606    0.41279244595827
C          -8.00552017309828  -10.43375073197276    0.48465966049008
O          -8.90724586901270  -10.19809124853995   -0.28156540640736
N          -8.15860480586097  -11.08251792751978    1.70854670928989
C          -6.98828682172880  -11.25740364205909    2.44424456638865
O          -6.92087933898281  -11.79380001357884    3.51980502849194
C          -5.95938374513467  -10.65133969034523    1.59714008237462
C          -4.61821274335850  -10.37256122830650    1.50512231979160
C          -3.54326568206665  -10.64297761122675    2.41773310921882
C          -2.27651895458358  -10.29529868081470    2.20165584424272
H          15.53256058125959  -13.49841949986189   -8.51347245283924
H          15.02271191639128  -11.74895930285266   -8.26855266495585
H          13.63910886677477  -15.36313063487839   -8.37443500302923
H          11.10117226646262  -15.55972938054189   -7.98874880874045
H           8.81165971805709  -15.19574010789244   -7.64314306420687
H           6.47847772460481  -14.18848820014261   -7.24069036234038
H           5.33124566434905  -12.02836357616415   -6.73778967713918
H           8.70063437929844   -6.46760946367550   -8.01476958774862
H           3.75416930670328   -6.50883006879856   -5.88844491041722
H           2.55266420161651   -9.29999520029978   -5.35649057343417
H           0.40751103078347   -3.04887409220672   -5.17673843102022
H          -2.02163386187856   -9.04614698395567   -3.84344424264659
H          -3.02776747677690   -6.14958265711539   -3.99251833322074
H          -3.48242164306045   -8.57693908156165   -1.65225045216999
H          -7.72661285088621   -9.12089329679415   -1.86947322930066
H          -9.65124137119600   -8.56736402650258   -3.56397414726697
H         -11.02803746734679   -7.88082966675122   -5.51344843494949
H          -9.98067263513805   -6.78625778999573   -7.43891379254778
H          -7.59425394007617   -6.33735930176167   -7.51072073769176
H          -3.91973429952946   -6.68112208147336   -5.77807416913897
H          -4.11597689796816   -7.09162246498879   -8.20612084974239
H          -5.81643029463585   -7.51506952497812   -8.00888764596356
H          -3.48178933678453   -8.94602487996350   -6.65566400774456
H          -4.40638841954542   -9.54999373587903   -8.03263677470151
H          -5.18496366485112   -9.36743066489650   -6.46265360009248
H          -6.05616433608962   -4.99032191232016   -7.14643548293561
H          -4.31155703391296   -4.81586724185711   -7.30940243964019
H          -5.82134868403149   -4.54538157395855   -4.66446391622929
H          -5.32136675208481   -3.19493970332705   -5.67911220298983
H          -4.10301733548118   -4.21824508753780   -4.93069000186050
H          -9.05797311081836  -11.40224823926920    2.03874041283249
H          -3.84876852157662  -11.15920023231727    3.31644872268764
H          -1.98307616012033   -9.77844458271231    1.30365037154261
H          -1.50313252564689  -10.51562838694364    2.91538104409603
