113
 SCF done       -183.011253663894          0.000541131165
C          12.72951877420450   -3.55837832438661   -3.98314198939149
C          11.69045678047855   -3.92148117350076   -4.74884937834295
C          11.52566701887426   -3.72518230540787   -6.15915833889060
C          10.36335380046408   -4.20459778780684   -6.66014709363931
C           9.51438427630220   -4.81607057674411   -5.70199561044662
S          10.26222442909556   -4.75455994161952   -4.11278811812737
C           8.28410687759994   -5.39809138952410   -5.89954061410785
C           7.56648541475898   -5.53135956631812   -7.10987411094515
C           6.37914809834478   -6.17658342184550   -6.95921878109422
C           6.08544570687502   -6.59058237460887   -5.63383531668941
S           7.38430484935146   -6.10554682379811   -4.56413566641454
C           4.94996997483898   -7.29494322275743   -5.30379578931975
C           4.54077369464503   -7.79334754422458   -4.06643969563371
S           3.09862760899905   -8.77120414290461   -3.95361292573273
C           3.27056814603300   -9.04996021955136   -2.24227788534964
C           4.40637480580022   -8.38077853411449   -1.77140676117584
C           5.11344281279448   -7.68229654035365   -2.79056364564067
N           6.23916117530185   -7.00227283117594   -2.51840215874619
C           6.66811962231196   -6.99443240449795   -1.28330703640194
N           7.79031454055727   -6.26962468687336   -0.98933882676178
C           5.92485848296301   -7.66672269100936   -0.23838788198790
N           6.39918566578168   -7.65082322724225    1.04946413751417
N           4.83502939871538   -8.34355309622086   -0.48635099620631
C           2.35017843702511   -9.88438451558470   -1.56991084351110
C           2.42598353613738  -10.17912934296938   -0.24910880249608
C           1.57156934513743  -11.07710819528445    0.47681340555453
C           0.52635680780011  -11.79652800261778   -0.12959877601956
C          -0.21292005389682  -12.68398164755743    0.61060445367346
C           0.08740914003745  -12.90769398971013    1.96817668245072
C           1.09649068597568  -12.18354186718873    2.58970021545981
C           1.81829268744602  -11.27605801295483    1.84533316031857
C          -0.74218168689012  -13.98382941677669    2.45517570576666
C          -1.56098745517302  -14.42947624491948    1.40208759237477
C          -1.35457962948269  -13.57288725458657    0.16981170591988
C          -0.99998554432126  -14.41022288389713   -1.06676668839430
C           0.21672143186723  -15.29868408796817   -0.83392861634554
C          -2.65641949541076  -12.76435459031155   -0.04094761492793
C          -2.60229845959791  -11.69352653186106   -1.12261437142570
C          -2.40803490689115  -15.49419205204892    1.57041563520522
C          -2.45144070447529  -16.16280046216645    2.80660843166552
C          -1.64115835659013  -15.68980195680062    3.85264655520576
C          -0.79452572364005  -14.61438939045177    3.69169549736846
C          -3.26492577376654  -17.32322689157628    3.04246518934755
C          -4.07103819942533  -17.93712655885190    2.14266521240543
C          -4.81125406905773  -19.10913441647148    2.41645498158771
S          -5.79173706368621  -19.82231680666884    1.16850797397753
C          -6.30868820990524  -21.15487728726609    2.16388031819164
C          -5.73059779266909  -21.03007651339203    3.43939375383804
C          -4.89823345270429  -19.88304789152886    3.58072195703027
N          -4.29321633419484  -19.60370664264892    4.76058071558370
C          -4.48583293350152  -20.44418485811675    5.74210038974513
N          -3.85562653314100  -20.20186603570299    6.93715946413568
C          -5.28486083213333  -21.63959185236628    5.57945214685811
N          -5.47982819180190  -22.49206119171779    6.63429534088459
N          -5.89921818539066  -21.90215367078148    4.45594162633259
C          -7.15401871175615  -22.14999858857695    1.65910268404490
C          -7.54592904650310  -23.24595348321597    2.38481610440764
C          -8.37486086412834  -24.25750272904127    1.89991790635692
C          -8.72528191694405  -25.36952419579839    2.63163035461599
C          -9.55210090081448  -26.44175986888419    2.22748210399525
C          -9.71110186186876  -27.41736982011860    3.16472081354221
C          -9.01421188866791  -27.17289903702263    4.37145822814338
S          -8.15291577048849  -25.64942179215748    4.27054913995141
C          -8.96621047508786  -27.96632296944858    5.49505925023943
C          -9.60742671968588  -29.21565576841633    5.70175482307548
C          -9.37319162455394  -29.77395303307586    6.91197780132390
C          -8.51984826139821  -29.00186123141667    7.76647198668732
S          -8.04152914673799  -27.52153740406318    6.92015848601782
C          -8.11459236107695  -29.29869101450962    9.00976321874777
H          13.57667874790437   -3.05388769055107   -4.41292381499240
H          12.75179934270211   -3.75628682197743   -2.92743886758122
H          12.28850867374531   -3.23298990125283   -6.73618913334003
H          10.07883090296479   -4.14240901141294   -7.69595868795126
H           7.93827112737338   -5.15804850678479   -8.04777591066071
H           5.69391298922175   -6.37922847070236   -7.76464064335168
H           4.28500244578305   -7.51417845035081   -6.13151690659519
H           8.27347781039285   -5.92733339462382   -1.80797859518019
H           8.38727963382317   -6.62549254727211   -0.26005688383896
H           6.87047667299971   -6.81091707927129    1.34509853206503
H           5.75149922153705   -8.03314835709609    1.72242420830124
H           1.57022649784595  -10.30204713791858   -2.19230414306769
H           3.22456559474292   -9.71624782484670    0.31306136259204
H           0.33082118876281  -11.66729522271801   -1.18204309411851
H           1.32299119340550  -12.34208428453489    3.63401181052492
H           2.61463932296052  -10.71381047121433    2.31237108973721
H          -0.79706595219359  -13.74402103882286   -1.90628931628740
H          -1.85877001746503  -15.03101062853852   -1.33138858280301
H           1.08689782187011  -14.69554275963219   -0.58374257121720
H           0.44085778807887  -15.87244723342571   -1.73054651275954
H           0.03482057512394  -15.99282718663185   -0.01641602502940
H          -2.91108741095290  -12.28815066669882    0.90982505059423
H          -3.45387321317896  -13.47291016598094   -0.27725127344899
H          -1.87059813170633  -10.92945310745106   -0.87432014823036
H          -3.57613250048037  -11.21499347904712   -1.20511287819903
H          -2.35470316604772  -12.11964532272981   -2.09136566313350
H          -3.02701478358352  -15.83051673587037    0.75313345330061
H          -1.68196274907251  -16.19938539076331    4.80503157682168
H          -0.17490949623929  -14.27538616734559    4.50904996767814
H          -3.20763292632757  -17.75849914921942    4.03001293975062
H          -4.17667480859895  -17.55396819365421    1.13658604741144
H          -3.43520912395754  -19.28606929858239    6.99337747954045
H          -4.34133242865740  -20.49598958536891    7.76946262351155
H          -4.70780098139910  -22.62181584713688    7.26827040756988
H          -5.97010781672022  -23.33881879921824    6.38290928694093
H          -7.49295659161504  -22.03391987648560    0.63703407428528
H          -7.18008788829040  -23.33388465884452    3.39810093315148
H          -8.76647167372405  -24.18086747368716    0.89313362927120
H         -10.00517138899865  -26.45892818494473    1.25131126421204
H         -10.30580399738313  -28.30184982793527    3.02181938591205
H         -10.22379879754971  -29.65997195717110    4.94007038401230
H          -9.77383965369829  -30.71559249099922    7.24335087823328
H          -8.42961767877012  -30.21048553751323    9.48541965695629
H          -7.46913926365755  -28.64457923890408    9.56628279420656
