82
 SCF done       -130.762945052193          0.000382864112
C          15.21449250578585   -1.39331623258340    5.18047301849604
C          14.20584754555724   -0.67507839020646    4.66900508526937
C          13.97654578944356    0.73619222022409    4.79789856318936
C          12.85613176365139    1.17966439792441    4.18702927936483
C          12.10460022397398    0.16723023495163    3.52764792657847
S          12.90411063139928   -1.38537615139606    3.70243097602144
C          10.91243498239662    0.29694638673151    2.86289738200038
C          10.10170800444397    1.45271269179043    2.71601236573298
C           8.93117416477028    1.21878996120402    2.07326464725193
C           8.72783893581522   -0.13407447180532    1.67115914667088
S          10.13256132210904   -1.08520441300662    2.11355907357998
C           7.61798270274054   -0.57755770793172    1.00605610634394
C           7.27326603036515   -1.86137637833394    0.52241101636132
S           6.18067694804028   -1.87487051398399   -0.85322415744191
C           6.35491205710921   -3.57428087402280   -1.02828451997172
C           7.17143636994741   -4.12248515489328   -0.09280635872431
C           7.46706629912651   -5.58325875970815   -0.00583069573949
C           7.67902689240158   -3.15840650499085    0.83345855511521
C           8.42245779757738   -3.56082965116475    1.99482140748955
C           8.32655694364468   -2.97754337463810    3.20753480765405
C           9.10647593798402   -3.32370999455585    4.36041370304417
C          10.31984053742959   -3.90997392172267    4.31844642357556
C          11.10214582001883   -4.17894460745181    5.48640210824585
C          12.34557641480293   -4.68580896657400    5.49231643592391
C          13.08707040000248   -5.06205851696152    4.24220326241950
C          13.03854215293626   -5.01990354102799    6.78865562566714
N          13.08431717057427   -6.46019873368354    6.99193653344668
C          11.93542431020751   -7.18210662798828    7.22153422922854
C          10.81966163325529   -6.73855941699679    7.82016098374776
C           9.64419731692923   -7.53979586375292    8.07388335174890
C           9.09558921731565   -8.46300326064198    7.27557898356029
C           9.60060425934697   -8.81936437546010    5.91055962201446
C           7.87249893891375   -9.23064482049447    7.71914004914602
N           8.16792982381564  -10.63393522995698    7.92619437398178
C           8.13757215749871  -11.53452520162008    6.91957422470109
C           8.72362691930874  -12.75109704957757    6.94556312803800
C           8.61179531398984  -13.70503691844822    5.89713661146413
S           7.74410314409982  -13.42111115669592    4.40016260543000
C           8.10221322956345  -14.97276996404185    3.73882609847888
C           8.86072738365194  -15.69552600548360    4.62170779569966
C           9.14009421563303  -14.97139317378870    5.82674059757957
O           9.89218758507368  -15.72044392067744    6.67570597761354
C          10.08587914734085  -16.89745095788513    6.02580212585249
N          10.84694366491056  -17.89023097025655    6.68050970073701
O          11.00429703761685  -18.93936194420460    6.08024121124251
O          11.29087995019375  -17.63967052754079    7.78172112059274
C           9.49842031066791  -16.95491551599708    4.79064437953941
H          15.98325127131733   -0.92209213569753    5.76675510639912
H          15.28676462566786   -2.45349455259157    5.02333379905782
H          14.66403603095736    1.35453740183061    5.34758115426862
H          12.53120393230046    2.20526817131533    4.18387520748361
H          10.40085895728159    2.40971037310399    3.10445563662179
H           8.18372698955154    1.96875403601965    1.88050280906806
H           6.92198818637991    0.20316815833544    0.71730475354297
H           5.83112313487589   -4.07533355638082   -1.81878489967318
H           6.94206176286996   -6.12253853952644   -0.79012472281623
H           7.15520221570677   -5.97604793854962    0.96116431192612
H           8.53631356236933   -5.76203626479487   -0.11568240374479
H           9.04937205139898   -4.43352887822720    1.87598183582427
H           7.59280293703096   -2.19282291772062    3.34613806779189
H           8.70437977536667   -3.02142682370824    5.31964360720824
H          10.75119731698027   -4.15913340502974    3.36094647365692
H          10.63648199447389   -3.92860986953019    6.43081139353745
H          12.60789639219364   -5.90421020077427    3.74148872657970
H          14.11459090030803   -5.33929183234972    4.46953872289728
H          13.10557343582147   -4.22652610521248    3.54497670928259
H          12.52357683537067   -4.56402367334680    7.63501445130340
H          14.07096477857564   -4.65746520639336    6.78102143096284
H          13.73892933053459   -6.92372381849961    6.37892354943833
H          12.02299669932178   -8.22928547433789    6.96756939192928
H          10.77116766180076   -5.72496518197124    8.19015890829219
H           9.12981629438675   -7.30365351375479    8.99988598837081
H          10.21187601782271   -8.01237982720414    5.51303400682895
H           8.76201187545729   -8.99035212248044    5.23613804383602
H          10.19810009489157   -9.73185522737715    5.92862827599740
H           7.08619394896809   -9.16647971807810    6.96080383986392
H           7.48588171616442   -8.82343242962860    8.65755892103296
H           8.80889411213744  -10.83066058938766    8.68237062470214
H           7.54355546775591  -11.24679942906927    6.06150557429188
H           9.31479860363189  -13.06359224419855    7.79458991656699
H           7.73657433100329  -15.23725124585842    2.76956559762388
H           9.53003485629185  -17.78702154913360    4.11835030225808
