88
 SCF done       -162.971872139643          0.000286341450
C           7.60947491021363   -6.11163937114652   -5.77108972639622
C           7.66606753955745   -6.67565924815356   -4.55767229571542
C           8.82258563219977   -6.85450458548229   -3.72591567559266
C           8.57186325885097   -7.45745981853196   -2.54406922587090
C           7.20550624553818   -7.80581275289502   -2.34058930310300
S           6.24570605918240   -7.33152131626054   -3.72627756717322
C           6.65519977327257   -8.42322443188683   -1.24385455677199
C           7.31482954981336   -8.85291772228444   -0.06406405995472
C           6.49046203261471   -9.43349368205079    0.84551105658077
C           5.13058076198789   -9.49908658044364    0.44143758695381
S           4.94127335432284   -8.78880384303430   -1.14720831895181
C           4.08682253205741  -10.03049056129263    1.15388231431289
C           2.76617116812719  -10.05848699275777    0.68190292939673
O           2.47233893496474   -9.53633425867592   -0.54579320453349
C           1.59059707874245  -10.54419396643504    1.23741165620697
C           1.01143393360474  -11.20071397982933    2.40492940594316
O           1.50686258824744  -11.58876780485345    3.43307621098109
N          -0.34485707017081  -11.30660697275568    2.08254797277835
C          -0.70196090945502  -10.79284445309663    0.83874433489062
O          -1.81715406786176  -10.79107863119616    0.37795227518069
C           0.56167734658404  -10.29875367224252    0.29767520298339
C           1.13931260701188   -9.67341960026866   -0.79397329104155
C           0.55900366600033   -9.21423057462560   -1.99426333063888
C           1.26294577641354   -8.59626631363476   -2.98286295663099
C           0.71327653881874   -8.12333960069712   -4.18711201267683
S           1.72051582017113   -7.30234720858391   -5.35980535884564
C           0.42251231204681   -7.01807716121588   -6.48746264030446
C          -0.75727700746103   -7.55804090487302   -5.97203333478339
C          -0.58509851165555   -8.16656443657822   -4.69361794123698
N          -1.80142092407232   -8.64313308960514   -4.33594248156055
N          -2.71987209637394   -8.39057354927103   -5.28129827040027
C          -2.13420202313829   -7.75150646354020   -6.25937051675215
C           0.68578664944179   -6.32948634398578   -7.69731548150204
C          -0.26804646776675   -5.95942339590011   -8.58318687750713
C          -0.07484567811753   -5.26359487895730   -9.82462756293040
C           0.98732888113433   -5.28430116240413  -10.64513050635481
C           2.22537305096058   -6.09870453888712  -10.43681741485454
C           0.97553925525882   -4.45994299139722  -11.91314229582346
N           2.03845717293854   -3.48212122871718  -11.91033100665264
C           1.89113541036851   -2.20078032183615  -11.57075510621411
C           2.93077390861046   -1.32782627564784  -11.41735250265008
C           2.71759720346195    0.02115692265632  -11.11366494196106
C           3.70981188894138    0.95952417457191  -10.94597338965352
C           3.53162190676480    2.36072926159335  -10.64709827169201
C           2.34725493039958    3.02883226941731  -10.44621690010312
C           2.25167358827265    4.40524105752260  -10.16087620588411
N           2.10154526744363    5.51987593041719   -9.92665405631803
C           1.06349035053012    2.45110213443512  -10.48977971637409
N          -0.01580266437846    2.05558522539543  -10.50725866081674
C           4.85737752287365    2.97379788495878  -10.58977663569789
C           5.82931488166953    1.97532926497286  -10.83797839300769
C           5.15091457125069    0.68036187536080  -11.06181948877847
O           5.70047266201434   -0.38196123091221  -11.28981182323474
C           7.17621107683235    2.23928424868419  -10.85581849830842
C           7.58705197752638    3.55528262371551  -10.61732717982148
C           6.60980498585064    4.54606831264526  -10.36854014308045
C           5.24618309342128    4.27806710357422  -10.34981202189640
S           7.33353506586266    6.10408110872597  -10.09879580454286
C           8.91711389871421    5.41000007219074  -10.32271140577277
C           8.90776497792757    4.08207875201734  -10.58499505470258
Br         10.43548500471270    6.50475807480597  -10.18983803108519
H           8.49754027892574   -5.72459972724499   -6.23866946439385
H           6.68456965351509   -6.02452296619424   -6.31096446340366
H           9.79079198116043   -6.52086541950144   -4.05456048780144
H           9.31909015144779   -7.66999164974727   -1.80038527252673
H           8.37247788284260   -8.72061131698206    0.07721674321585
H           6.80422642215875   -9.82105677490270    1.79842621314766
H           4.26312211200452  -10.45554672501393    2.12938951594906
H          -1.01622641381160  -11.72657442621215    2.70898074802885
H          -0.50302934702913   -9.38406624580870   -2.07075789102865
H           2.32532315881135   -8.44669614311914   -2.84297336442456
H          -2.07661518355032   -9.13598017851821   -3.50278612845727
H          -2.70045160241207   -7.46286158185303   -7.12093071796381
H           1.71795456079003   -6.05736452714818   -7.85668563854051
H          -1.29974891365175   -6.15437688075802   -8.32735973563715
H          -0.93834069505801   -4.69106591516608  -10.14362160306932
H           1.99802960188084   -7.00486990193968   -9.88029685907490
H           2.97559167042265   -5.53801326309154   -9.87765295523213
H           2.66021145758260   -6.37830460204058  -11.39564671323646
H           0.02462337860202   -3.93494891166431  -12.02082088942141
H           1.11290719678330   -5.11480099025018  -12.78201848131664
H           2.98250357939409   -3.83606839662186  -11.98141647965963
H           0.87069803650854   -1.86027300820495  -11.44512973623732
H           3.94579577893520   -1.67501137450122  -11.53620899474444
H           1.68802755010817    0.33719780934154  -11.00944673296886
H           7.89199517205423    1.45556416913640  -11.04904295331094
H           4.54236959374612    5.06985345622754  -10.15565084209098
H           9.79364175474068    3.49630511079603  -10.74996631585504
