120
 SCF done       -206.513056807997          0.000729322830
C          11.24840026436237  -10.12950500931517   15.24397681152054
C           9.95638368345687   -9.81382843523899   15.08978245957760
C           9.01251473984037   -9.45174533075252   16.11020704271642
C           7.77015869095174   -9.18669328927432   15.65495365043339
C           7.62086608763281   -9.31457497049403   14.24308269196221
S           9.14560549085691   -9.79036589299699   13.51528579268470
C           6.48767167122581   -9.10950645820469   13.50180020596995
C           5.19637132010815   -8.73364024047613   13.96366762557083
C           4.27441555783636   -8.59813971741426   12.98310370096541
C           4.76258579511462   -8.86135953305967   11.66564785415502
S           6.47618601304325   -9.27928843738987   11.75365883586235
C           4.01801859983134   -8.86250852799492   10.53225535527555
C           4.52123485143296   -9.09035653201708    9.19789191719080
C           5.73030777175414   -8.58158141881482    8.81596985769725
S           6.14195645749910   -8.85202278334529    7.17369049048453
C           4.65151258800530   -9.71086662636059    6.94722026112408
C           3.86743559564732   -9.78387181171382    8.10774488164312
C           2.67526337830723  -10.54676526784946    8.06978774628003
C           1.89632943664832  -10.72249585885141    9.34814792175816
C           0.80068754400520   -9.66313625245970    9.49744771616838
C           2.24632793015653  -11.13361833336888    6.88515615298849
C           0.96888570987841  -11.93419040973799    6.84873734876434
C           1.25221205894417  -13.43740879742622    6.83785937615936
C           3.02666220766865  -11.02414255030904    5.70571594561484
C           2.85892040116477  -11.58642068431303    4.38024667637970
C           3.91664555810159  -11.28358652618388    3.56623646923098
S           5.13266105408737  -10.32136636347469    4.28605139527748
C           4.23956076757252  -10.32053898107558    5.77507442018207
C           1.76942188855660  -12.37235289326888    3.84809572139616
C           1.93644303987289  -13.32114059662694    2.90751389118120
C           0.85673439147804  -14.05263817218084    2.30279020426996
C           1.05695781185247  -14.97157605829085    1.31721664244329
C          -0.04109740987837  -15.63684717507351    0.69621327356733
C           0.12075526820610  -16.58736495528368   -0.29414350252820
C          -0.98227026707268  -17.23959573474342   -0.86616516807310
N          -1.89994414967870  -17.76821625467529   -1.31284581647037
C           1.39074225064946  -16.95980294575052   -0.76114509168804
N           2.43495304113465  -17.25589128117404   -1.13837390307063
C          -1.33676665138267  -15.23749809880441    1.16572732490858
C          -1.45317372885464  -14.36483326737184    2.18861056152840
O          -0.38912093307654  -13.76129029711419    2.76899842515265
C          -2.76250947631332  -13.88769450426738    2.66164196810390
C          -3.14962459867191  -12.62263747305953    2.34989250459042
S          -4.78219766787750  -12.26833166105480    2.74857782090697
C          -4.97232593104060  -13.87058718909124    3.38719362023478
C          -3.79971657294303  -14.64067677969034    3.31853987328131
C          -3.77935743190124  -15.92176405588817    3.92298403043011
C          -2.47979696019615  -16.68515621064932    3.98432842932031
C          -2.37148206348712  -17.79118341033168    2.93125852146198
C          -4.93417550788218  -16.43741917217142    4.49703057089275
C          -4.92047919950696  -17.75961345448437    5.21487227366641
C          -4.78498446691320  -17.54923730560705    6.72647104776492
C          -6.14334075297039  -15.69778932576241    4.46949101333472
C          -7.48699637174583  -16.05454066416988    4.87499803116314
C          -8.37746683607354  -15.04729942806150    4.60886615757921
S          -7.69001759405850  -13.63648932669770    3.93389402341641
C          -6.13340612875170  -14.40735352228450    3.91761846676648
C          -7.96671101176580  -17.27107267409556    5.48250012324857
C          -9.17771749064869  -17.80636483481245    5.19418421519686
C          -9.63848963090388  -18.98465916652219    5.82907499757274
C         -10.83420811859432  -19.59307419347395    5.57358286021842
C         -11.33373490479647  -20.81787385109910    6.17201141015221
C         -10.72321619200616  -21.57327567084509    7.14054444168855
C         -11.27269992084231  -22.75033750647304    7.69097937330210
N         -11.66360584014878  -23.71254934556435    8.18058107626179
C          -9.47499176710479  -21.29547834373172    7.73493475226976
N          -8.46735631291905  -21.14307684228759    8.26548372032680
C         -12.62463440040320  -21.11521572603571    5.56094784241436
C         -12.93385930122423  -20.09725748299778    4.62603831083874
C         -11.84525152925139  -19.10098644811400    4.60587053744400
O         -11.81044094555071  -18.09143200861713    3.93357037353387
C         -14.08767957600693  -20.09842407898698    3.88080400280527
C         -14.98215979632727  -21.15760876716946    4.06444769213997
C         -14.66593165554907  -22.17143837039725    5.00034833822430
C         -13.49943136722352  -22.16907101541785    5.75458057320768
S         -15.90667785433500  -23.38630673770387    5.06922026417308
C         -16.81982226472761  -22.52772556245072    3.85705324906415
C         -16.22859338377658  -21.38976036570743    3.42155921954986
Br        -18.46713748581238  -23.21436626770664    3.28084977638148
H          11.70013925547750  -10.13305377584553   16.22024833076137
H          11.87130401116142  -10.38791258726475   14.40744667524627
H           9.31346376865497   -9.40713737625465   17.14199410066447
H           6.94288274891716   -8.90005785407633   16.28004217766446
H           4.99495122294120   -8.58281918228839   15.00925623082956
H           3.24673260655126   -8.32285113209097   13.14497250783206
H           2.97174685580662   -8.62110953149274   10.64190478128777
H           6.39686289513778   -7.99592506054429    9.41750322693792
H           1.45096929389348  -11.71647195527047    9.38964216269171
H           2.58898550113414  -10.65594279247312   10.18770405940992
H           0.03674109900203   -9.78201161691267    8.73250900245016
H           1.21339462185507   -8.66226616869645    9.39044489620473
H           0.32551542731659   -9.74449522405300   10.47294444385034
H           0.39039501630352  -11.65281940461876    5.97002158555709
H           0.34381778720967  -11.70330848659499    7.70719042055036
H           1.86607714206525  -13.71343272283005    5.98415469772138
H           0.32022166725251  -13.99681040025061    6.78954896846998
H           1.78230063623451  -13.72501080970446    7.74332227294831
H           4.01799932178675  -11.54684789709250    2.53147996759278
H           0.76703055649031  -12.16939651052873    4.18987406976782
H           2.92114089998211  -13.58579842976266    2.55347616618225
H           2.06010502896146  -15.18829857830181    0.98652514901539
H          -2.22217913594298  -15.63160128845224    0.69458275777827
H          -2.55852012505619  -11.87590356781640    1.85565368494201
H          -1.65286005449725  -15.98750328374395    3.85007368180110
H          -2.36173944864315  -17.12369308460630    4.97649053386270
H          -2.49120975165229  -17.39207868569180    1.92954700452858
H          -3.13372695625705  -18.55263190940527    3.07014605839846
H          -1.39589721220957  -18.26814071076759    2.99682895945610
H          -4.09804604643033  -18.38386807495689    4.87837899738094
H          -5.84038268297512  -18.29800714121024    4.98429878072137
H          -3.80676634491449  -17.13534755236206    6.96202614954568
H          -4.89197782979596  -18.49538814178274    7.25206187608527
H          -5.53343970382321  -16.85300380958607    7.09837648265398
H          -9.42616338440846  -15.05454276900374    4.83438993557255
H          -7.35627138961398  -17.75540307775955    6.22975742966776
H          -9.80806939120300  -17.36149433330806    4.43966428621055
H          -8.97228377604410  -19.42908459359723    6.55743584972454
H         -14.29230547054012  -19.30722663761963    3.17661863358710
H         -13.30569589993076  -22.96619557674560    6.45245209836941
H         -16.65220022637654  -20.74025674973292    2.67745223752208
