108
 SCF done       -199.674296134866          0.000688061062
C          -0.19726088573424    0.45854491960171    9.87585836414323
C          -0.55821627880386   -0.41073749839334    8.92170042661605
C          -1.85032687310863   -0.56717683550799    8.31863319585677
C          -1.91401328946681   -1.53288044890977    7.37486997543983
C          -0.68922651818046   -2.21942271677454    7.15159011696832
S           0.56200981965683   -1.57917424484408    8.20308349828322
C          -0.45156930720516   -3.23849074022743    6.26165044833174
C          -1.36312532593072   -3.83669371266676    5.35687027377708
C          -0.81823622009251   -4.82207274265864    4.59732445874454
C           0.55481268523235   -5.07506549554099    4.85480764795191
S           1.12882043985011   -3.98981028134427    6.11070186412330
C           1.29907490756628   -6.04542395226626    4.23531335289440
C           2.65431160207979   -6.35773497650108    4.43045861098677
S           3.71038541682336   -5.22421944173083    5.24862824060367
C           5.09684169970319   -6.11455523043856    4.81406041204900
C           4.80116759842274   -7.25771229973955    4.11277397690996
C           3.39023709559415   -7.45785392158870    3.94256692622206
C           2.86354729239455   -8.64223519344273    3.37101336300101
S           3.88754800905576   -9.91725269436861    2.82496470659451
O           4.23089655248724  -10.87572638442111    4.23628046384595
C           3.21291216914080  -11.69068361507171    4.75109682299127
C           5.50168968447507   -9.21759585715438    2.85283510162536
C           5.79518221141755   -8.08747925721031    3.51628088112045
O           6.33054359169325  -10.02485587153005    2.13761020059828
C           7.68660169265526   -9.64916962379081    2.04193747602347
C           1.47848942877355   -8.97110048793641    3.33151445421079
C           0.88415566231533   -9.91514921946662    2.55495799068783
C          -0.51897565062588  -10.15273724666423    2.60704200351376
C          -1.16808818843500  -11.15279812950511    1.92018992432963
O          -2.55440942512458  -11.28974041319743    1.95700063083781
C          -3.19820906788659  -10.51160138686047    2.86287137429138
C          -2.51749450947589   -9.50285083146261    3.60156756754976
C          -3.33088819842942   -8.83395093941982    4.45517849239116
S          -4.94499982161274   -9.43310397624808    4.37504012744582
C          -4.51578876500717  -10.59243836292942    3.16967304691679
O          -1.19272019983131   -9.25858680629853    3.41855074626089
C          -0.53416460373791  -12.19878660730161    1.18927074702086
C          -1.26925186832715  -13.22582783991064    0.69440816011481
C          -0.83010494431656  -14.42254003416538    0.07677219901952
S           0.60616651308536  -14.53849062396187   -0.90714526762590
C           0.19982601787088  -16.12565603169774   -1.40861254197594
C          -0.96304518270962  -16.57866949734513   -0.84043022439849
C          -1.53474863112474  -15.62776799659328    0.06098686176779
C          -2.64372705904442  -15.90989697289438    0.90922655943423
S          -3.72144714607859  -17.24611462975952    0.57821512623163
O          -3.40204658910481  -18.21624382962162    1.89071164990382
C          -4.48816007984188  -18.87435611342824    2.52312092956894
C          -2.80079932849607  -18.15675969121624   -0.65146019263648
C          -1.59885280456699  -17.82299766589034   -1.14294389291368
O          -3.55323028666878  -19.25925490941516   -0.91967782943143
C          -3.04922579294705  -20.19706466481732   -1.84673022910527
C          -2.95695979612413  -15.17181680017116    2.04571625083467
C          -4.10651553962826  -15.25961234636071    2.80306944439430
C          -4.27585942736664  -14.45236793294719    3.91653040123250
C          -5.39207033543177  -14.43526457387686    4.73845234219162
C          -5.64529736607021  -13.51077860927759    5.80516322082727
C          -4.81813805353546  -12.50348494290437    6.25840648792117
C          -5.15460485641478  -11.60682147865455    7.28882022881309
N          -5.36495523658311  -10.84593667042327    8.12470890960202
C          -3.52054722957463  -12.23240413570922    5.79155253400417
N          -2.44641691042851  -11.94681281399756    5.49005990417807
C          -6.96258988772548  -13.82622397044135    6.35802745799151
C          -7.48049479109051  -14.95188533455718    5.67205779654784
C          -6.50794319266501  -15.37423040204181    4.63834253112293
O          -6.62833142992453  -16.33538156881808    3.89057744402625
C          -8.69687121594024  -15.50782560447603    5.97609779298847
C          -9.44537981505094  -14.92095640849815    7.00408442525869
C          -8.92386617058798  -13.79410614193625    7.67619196418345
C          -7.68820718460628  -13.23295840713634    7.37121997742899
S         -10.01066085988354  -13.22549814532883    8.90947482207696
C         -11.13373732907066  -14.49715975697273    8.50854984658227
C         -10.72052028770360  -15.30476307080608    7.50454513264565
Br        -12.74889950324637  -14.64036497006339    9.45500101680661
H          -0.91098107459858    1.15123013766900   10.28559656843582
H           0.80543724770051    0.49181752673411   10.26030295543568
H          -2.67543182719947    0.05270003383074    8.62219550385939
H          -2.80364119665431   -1.78491234370734    6.82484454918180
H          -2.39002664409359   -3.52368986022742    5.29655097436139
H          -1.35730226294952   -5.39365452223970    3.86159172464552
H           0.77864910692397   -6.60356616394413    3.47072548047017
H           6.06973733221931   -5.75371498174882    5.08279880475004
H           2.90992030403678  -12.45743949764724    4.03191125315290
H           2.33801372172470  -11.09807758013145    5.03617940385442
H           3.62556280250099  -12.17080045263264    5.63848889691614
H           6.81738723949725   -7.74619035638592    3.58744212172240
H           7.79202851761949   -8.66234411594344    1.58051033630275
H           8.15554942496037  -10.40104004762368    1.41054975643776
H           8.16683883392754   -9.64590196188286    3.02475163155096
H           0.84410671176136   -8.44101778680395    4.02503451990993
H           1.46245393423423  -10.49044038593309    1.85030819680231
H          -3.07933877544991   -8.04201849888732    5.12894984284687
H          -5.24886570035184  -11.26050643480482    2.76818472760831
H           0.54073044641425  -12.20300710689771    1.11524454936374
H          -2.34277224185909  -13.16361315115053    0.81420379748733
H           0.83132486186986  -16.63943831276966   -2.10567812921590
H          -5.01887454462499  -19.51821711407955    1.81854740110625
H          -5.18376199771073  -18.16114682885150    2.97121159180665
H          -4.03948573825939  -19.48317543545561    3.30661812702450
H          -1.09065563741668  -18.47972265185681   -1.83432720911435
H          -2.89011558167536  -19.73590600706126   -2.82572281483598
H          -3.81025021754368  -20.97051708136514   -1.92564390063524
H          -2.11305625070368  -20.63805921226793   -1.49274103251073
H          -2.19414580446696  -14.49373592315819    2.40341089599398
H          -4.90895387239185  -15.91871243058150    2.50630229607687
H          -3.47379851766250  -13.76126123174910    4.13909026747380
H          -9.06440627094560  -16.36903307153995    5.43999981417741
H          -7.33331711429579  -12.37349359339086    7.91472009002992
H         -11.28849003251963  -16.13735642575374    7.13101784693507
