109
 SCF done       -183.541207396049          0.000702950975
C           6.32116658869487   -2.36610198455621  -10.03704835774883
C           7.11168780273891   -3.33781913501125   -9.56272814456251
C           8.51913726465344   -3.51333087185587   -9.78452999891562
C           9.04916417884362   -4.59583982087655   -9.17548966241062
C           8.11370382445340   -5.36475713431362   -8.42481582639491
S           6.52051597631219   -4.64614540097942   -8.52410619684899
C           8.35824192633631   -6.51147187920486   -7.70865933241020
C           9.59307728937244   -7.19155739816290   -7.55139611294960
C           9.51066491911145   -8.30841711050079   -6.78370914568238
C           8.20722827721666   -8.57922444550037   -6.28777209955494
S           7.08726158176281   -7.35031060175077   -6.83482973378417
C           7.83612591483070   -9.63671042338986   -5.49865944882000
C           6.52443446985841   -9.84637135652583   -5.04592031514601
O           5.53392321126524   -8.96711082889475   -5.37782124616779
C           5.96541890862258  -10.84740828457350   -4.26517659369379
C           6.25093596177953  -12.07959780741470   -3.54287713093326
O           7.27273613962239  -12.70019779526074   -3.38334535979655
N           5.00630939844396  -12.44724925633498   -3.01864436672578
C           3.95918758993794  -11.58891567062710   -3.32807496357057
O           2.81052505318341  -11.74127263751377   -2.97820843809256
C           4.58638957503253  -10.54665300852700   -4.13268762158592
C           4.35434725673807   -9.37344597363861   -4.83268405200255
C           3.18813273770131   -8.60385146130984   -5.04584726451480
C           1.99029469809365   -8.94851780648117   -4.50771098931644
C           0.79737933212847   -8.20513118138383   -4.65489290658267
S           0.83525211481773   -6.64686921595846   -5.44266228554863
C          -0.83640658696906   -6.36652650931603   -5.06823764735447
C          -1.37541938510370   -7.42140612433286   -4.34858955607980
C          -0.47591091939455   -8.49316375222894   -4.17693688700566
C          -0.91947576816894   -9.82694780686491   -3.63734243277238
C          -0.36894865060916  -11.01547444146968   -4.43835761546978
C          -2.45141697892700   -9.87594226328645   -3.67001265278623
C          -3.04591780802968   -8.66640383909631   -2.96908609801021
C          -2.74824825645757   -7.37313153125413   -3.73446985728229
C          -2.86621790877475   -6.19211860291178   -2.76228154493483
C          -1.49803033904990   -5.19189639201927   -5.53998840874705
C          -0.87093304200846   -4.15154629439909   -6.11779888341748
C          -1.52715031712919   -2.92633541819916   -6.53007297925200
C          -0.96447832871833   -1.73984070110095   -6.15852888379197
S          -1.95739587193407   -0.36147963460935   -6.41371171234461
C          -3.19166422250695   -1.38239593968889   -7.08386831129274
C          -2.81619259814346   -2.73426297231212   -7.15539759652382
C          -3.63833682162819   -3.62449917775987   -7.89239835649622
C          -3.05656518996380   -4.93579362398804   -8.35489455340933
C          -2.28207475427932   -4.70653985457272   -9.65706314841644
C          -4.88855111993346   -3.21297554691362   -8.33492395742615
C          -5.77523618918359   -4.14670393435600   -9.11918273581843
C          -6.58224092797156   -5.06424623108898   -8.19642354632256
C          -5.33710107703187   -1.89332297573294   -8.08406710948905
C          -6.57711559478143   -1.23595111394468   -8.43226020217661
C          -6.51954622404938    0.10951817077294   -8.19672675461074
S          -5.04695948046529    0.65525792112053   -7.51203542180410
C          -4.43223194034678   -0.96975164366605   -7.53891523576774
C          -7.80220290660241   -1.85021536300623   -8.88574876799524
C          -8.69871654908014   -1.24759471471395   -9.69090169282275
C          -9.93345613300903   -1.84958711628726  -10.07008905042983
O         -10.27272338777784   -3.09549611790793   -9.63905231693127
C         -10.95445710389976   -1.37455267025567  -10.86473040782560
C         -11.40510209532495   -0.23765775146010  -11.66551730438311
O         -10.88847298395310    0.82279547069572  -11.90624638650535
N         -12.65379595122306   -0.64582521013941  -12.13842755580622
C         -13.06235600825931   -1.91600660229392  -11.73748767033269
O         -14.10295804567163   -2.43731380405378  -12.04339764858613
C         -11.95068521213487   -2.38755991870461  -10.90603935990091
C         -11.49270846986745   -3.43235282030410  -10.13925678060955
C         -12.08937395368677   -4.70364016938773   -9.84068302453134
C         -11.51978298126724   -5.63149327402622   -9.07425505407001
H           6.72080666318360   -1.58957294087510  -10.66505580468419
H           5.27196957389157   -2.32937273628412   -9.80809456247735
H           9.06901325201575   -2.81740607832157  -10.39299118158616
H          10.08504492835658   -4.87905003696606   -9.23500521622072
H          10.50013920568507   -6.83819875378471   -8.00813895385946
H          10.33762433345074   -8.95579793140266   -6.55151426007470
H           8.57297203535972  -10.36454931869880   -5.19670072177232
H           4.87925206834878  -13.28040957234703   -2.46269076867988
H           3.29823175480956   -7.72240983752790   -5.66199384489039
H           1.94187469925599   -9.82973282972257   -3.88732341714603
H          -0.58711181018303   -9.92122624713852   -2.59628254640194
H          -0.31415372783311  -10.77336243801365   -5.49744840584064
H          -1.03426475891825  -11.86785740850710   -4.31750150187743
H           0.61332691769156  -11.32315378794810   -4.09734660453029
H          -2.79093662165915  -10.79089624439420   -3.18173517386659
H          -2.78680602714030   -9.90231203718815   -4.70986883053985
H          -2.61640290165939   -8.59761988878431   -1.96687413047099
H          -4.12589342295658   -8.78114043055146   -2.85994951302815
H          -3.48855098260917   -7.24895756220111   -4.53518500254435
H          -2.10376332380892   -6.27243413413943   -1.99012344318128
H          -3.84340210654586   -6.20823697607714   -2.28405601593041
H          -2.74135217535953   -5.23531918362575   -3.25983257746890
H          -2.57314497686723   -5.16655371363872   -5.42110510645264
H           0.21049912623791   -4.15219883033848   -6.16879170397899
H          -0.01558456793014   -1.61061877039579   -5.67448162824563
H          -2.36430979597974   -5.33493721473955   -7.62077052648277
H          -3.83175821206190   -5.68207119191370   -8.51413554334258
H          -1.86686191013527   -5.64508990230465  -10.01681999272873
H          -1.46389717964958   -4.01048943560402   -9.48666156747686
H          -2.92583963108324   -4.29089030049095  -10.42941282980740
H          -5.17818119837355   -4.75667981277877   -9.79604288088148
H          -6.45167835837407   -3.55926049597209   -9.74064432530270
H          -5.92415776671938   -5.73507273953404   -7.64865001993361
H          -7.27970567343169   -5.66423191800487   -8.77729253409036
H          -7.14216294601812   -4.48675162075535   -7.46366804117989
H          -7.31266672191303    0.81656944049751   -8.34249599695726
H          -8.03794258688975   -2.83369552743081   -8.50896717478745
H          -8.52250427448269   -0.27086976855940  -10.11545083257916
H         -13.22299615576133   -0.06130351918982  -12.73391324794637
H         -13.05798550848986   -4.85358567037219  -10.29525035456242
H         -10.55521903646410   -5.47012542657582   -8.62315672445977
H         -12.00347410747400   -6.57080842192898   -8.87481378842271
