86
 SCF done       -142.230771827274          0.000190434690
C          -5.15816238097089   -5.14849659882200    1.24999024425824
C          -4.22267536934131   -5.77167878840611    1.98069938171267
C          -4.40077246121242   -6.87352055560117    2.88083913313213
C          -3.26280336022184   -7.29839968260974    3.47562657634946
C          -2.09759916567699   -6.57652023449560    3.10045515316446
S          -2.51110844129342   -5.31659869942340    1.95335620828133
C          -0.80621497268389   -6.78942964061872    3.52626131864180
C          -0.34617877523378   -7.77677800081137    4.43028201909272
C           0.99816905311575   -7.74853270136035    4.63746235591392
C           1.67797554293987   -6.74086792517023    3.91140608007395
S           0.53678159464536   -5.81381767915292    2.95765881821848
C           3.03146380239604   -6.50185637819137    3.91277920565161
C           3.65813658973378   -5.49815404475741    3.16606589505440
O           2.90971934082319   -4.66171099951066    2.40048502893520
C           3.75455717554390   -3.80512537932944    1.79627722618718
C           5.04117705507465   -4.05031395452526    2.13954612713436
C           5.02210994415050   -5.15947292395060    3.04123040666446
C           6.11189319737280   -5.77705739489497    3.69007721754449
C           7.41061576584395   -5.36988449960855    3.55603044643018
C           8.49796442842622   -5.92061954101831    4.24304252572851
C           9.74655927584567   -5.34198512975326    4.19102965215319
C          10.85964628157194   -5.75491972560198    4.90916139323483
C          12.05169675364966   -5.05033290750300    4.93267447453463
C          13.22577147579841   -5.36900026639771    5.63681268951214
C          14.23568203731009   -4.45561061132603    5.48667470317587
C          13.90045547963465   -3.37248518464389    4.65778635054525
S          12.26709399720633   -3.54191518589086    4.06413205661806
C          14.69607833745207   -2.28617207482517    4.31251941975679
C          16.01637403392904   -2.02390481359469    4.70901979910557
C          16.52776260882585   -0.86997364009351    4.18480937387578
C          15.64201474284307   -0.15542624861868    3.34690984762131
S          14.11659787968693   -1.01193524956004    3.26258310725023
C          16.01952040959771    0.99471873941363    2.68426821729605
C          15.40651885538611    1.88158459325951    1.79472758539062
O          16.29433277584073    2.77311599736569    1.24606508470576
C          15.61812721979609    3.56114998363908    0.39571479973311
C          14.30662366396084    3.24079152078163    0.36409415630692
C          14.11428108166247    2.15254300068338    1.27702113177756
C          12.87468050880508    1.57067904596731    1.60787117914546
C          11.68688567124676    1.94826221102154    1.03681798687823
C          10.42947856747419    1.43036984945282    1.36920490385575
C           9.28838536730928    1.88207015496445    0.74289995010330
C           7.96068882735838    1.50982106610556    0.95431123397835
C           7.40718342642742    0.61403549177050    1.84898465636035
C           6.02089374626922    0.35048458838972    1.94437705597601
C           5.67696444286464   -0.56260335536639    2.89585593216818
C           6.77865141890301   -1.07703987676616    3.61143588238239
S           8.26704507515570   -0.35586737110710    3.02831788680338
C           6.76471107794348   -2.03108667302729    4.60729503147204
C           5.64091755265046   -2.73426591828298    5.10702579526383
C           5.94466822717618   -3.69830684731830    6.00980640497675
C           7.34079402214157   -3.80975965557466    6.30484071826192
S           8.22947833662865   -2.58454941289097    5.39403077526281
C           7.94870370181314   -4.70540477323813    7.09773388437367
H          -6.18697688943317   -5.45920822370406    1.29565356927614
H          -4.91472903447414   -4.32801082491841    0.60059865883127
H          -5.37548026228023   -7.29954471110851    3.04069562897011
H          -3.21429285916943   -8.11307797092355    4.17652298147048
H          -1.01434208732195   -8.47838421485968    4.89663326062355
H           1.52949864472828   -8.42291569024498    5.28625975277112
H           3.66057385234356   -7.13365045514625    4.52086805778383
H           3.31591616530205   -3.07245802379472    1.14719322783005
H           5.90033690920181   -3.51168788691002    1.79786324211164
H           5.89294018444347   -6.61273183179063    4.34107143594825
H           7.62310025283434   -4.52531074962529    2.91439412270469
H           8.33720648934023   -6.79107217103829    4.86510584495586
H           9.86388478225789   -4.45538040816067    3.57912004305649
H          10.80126556591254   -6.65495231964861    5.50774793677270
H          13.29992092369985   -6.25993260238947    6.23581485876084
H          15.20053049590116   -4.54218575239168    5.95341042421336
H          16.56079777383100   -2.68315691955127    5.36082892832346
H          17.52464421724413   -0.51299760142009    4.37536716246816
H          17.05998221033281    1.25974771438719    2.84571480042958
H          16.18330567517934    4.31073365657370   -0.12379275957190
H          13.55601688672568    3.72224924823750   -0.22686269346025
H          12.85813700817552    0.80617402799333    2.36753201784282
H          11.69965186130601    2.71151544250783    0.26969220896245
H          10.37305246349276    0.66975306433321    2.13409336780137
H           9.43126030769955    2.63642522583592   -0.02303234655226
H           7.22949391230743    2.00313941611643    0.32368568593090
H           5.31461849075811    0.84724898546654    1.30191301290702
H           4.66955033500670   -0.87922745711948    3.09664032713162
H           4.64432281807411   -2.51942326857584    4.76491274874373
H           5.22637967547567   -4.34343991636689    6.48346789810467
H           7.37551795932561   -5.44221127068799    7.63226005918440
H           9.01416982767998   -4.70516221062254    7.23584204819369
