81
 SCF done       -135.338992536690          0.000565645690
C           4.64211229283547   -7.94886072784801   10.57321141508638
C           5.36648968780050   -7.66452065830768    9.48339107628492
C           6.75365096926858   -7.29404339033724    9.42683332500669
C           7.21918892574317   -7.06917550760411    8.18096146378291
C           6.24972353329016   -7.23934753849126    7.14758704049103
S           4.70700574079025   -7.69954284174940    7.83904281431947
C           6.42664316086332   -7.08422668089797    5.79801634676122
C           7.62479865281939   -6.72126862555624    5.12586616465088
C           7.48850004525891   -6.64952480843413    3.78035554264411
C           6.17613064616151   -6.94856755719405    3.31041507066064
S           5.11139568489033   -7.32961667419367    4.64078155181476
C           5.74365825055547   -6.95177920211696    2.01870808369042
C           4.38685924737880   -7.26765363359770    1.71638794778177
N           3.60046383453535   -7.55873891226049    2.76479256791700
C           2.34074198558673   -7.85752262263889    2.52369008535757
C           1.82061675723061   -7.86700712310242    1.24180405876002
C           2.70409338626413   -7.54234449532951    0.19693585959246
N           3.97912746634956   -7.25550867463449    0.44715488781680
C           2.33341831209584   -7.50101392098848   -1.20150773142711
C           1.06967002217186   -7.55311278055415   -1.66592997897123
C           0.65407041921909   -7.50923325462634   -3.02705277351002
S          -0.97290560028371   -6.99752405003868   -3.34839455031555
C          -0.77696166772602   -7.07358481649958   -5.06474390101865
C           0.48825557744023   -7.56724070005602   -5.38391783572494
C           1.31092485427028   -7.80517584615799   -4.22603995287889
C           2.59372514656746   -8.35981263505078   -4.39642451314860
C           3.05414218686066   -8.65077175897212   -5.65779081082461
C           4.34679923271770   -9.19455062196673   -5.83112645514011
N           5.40048239137140   -9.62856582546620   -5.95466042484531
C           2.22511747689920   -8.43850563994398   -6.80454916726787
C           2.70734036481975   -8.78048183569067   -8.08766645163905
N           3.08247261465818   -9.03787181321276   -9.13989782619879
C           0.95964312696603   -7.92607754188456   -6.66201559215719
C          -1.87422112521539   -6.64350885213282   -5.88710820913442
C          -1.84017301586744   -5.90624744725671   -7.00794507841514
C          -0.61775444596869   -5.33572819922699   -7.64863547758533
C          -3.13402610540348   -5.61777299157383   -7.73486016161683
N          -3.35227225741157   -6.57725959559453   -8.79244268885650
C          -2.85696341579903   -6.43125651380849  -10.04653033700731
C          -2.81554711038626   -7.42767850680460  -10.96596764007472
C          -2.39559408253421   -7.24501941902643  -12.29903001388589
C          -2.43831485815554   -8.21407745159074  -13.26169506922511
C          -2.04116468405958   -8.09636778231681  -14.61890824759525
C          -2.23266221167668   -9.21651792835482  -15.36188274920312
C          -2.79692539075560  -10.30054848295654  -14.64156950962978
S          -3.05928769862620   -9.83977915464214  -12.97094896399064
C          -3.12992771818970  -11.54539010553656  -15.11590921217706
C          -2.98063430391339  -12.03603332479744  -16.44197438936893
C          -3.41203622908945  -13.30425118326708  -16.62198669976248
C          -3.94145002079580  -13.92528741874743  -15.44214839100108
S          -3.84653197263253  -12.78155240834491  -14.09375777174581
C          -4.44142356158357  -15.16265416528994  -15.31920248586811
H           5.08552178601980   -7.91500423319578   11.55286484627992
H           3.60394429366271   -8.21781034993804   10.50700194575333
H           7.33658933732954   -7.21463955241419   10.32754010383799
H           8.23115421363757   -6.78395229017597    7.95362384758660
H           8.54369351490939   -6.52672348575665    5.65100566920266
H           8.27672092675146   -6.39247973532740    3.09439284229781
H           6.40766057707261   -6.71526322079973    1.20377819523678
H           1.73517163965524   -8.09688529919644    3.38888398361065
H           0.79079108499797   -8.12500960168621    1.06279914734819
H           3.17216171903805   -7.36317891730873   -1.86627344744443
H           0.25086939697460   -7.57336958564726   -0.95712778981563
H           3.20888135828066   -8.58816024882034   -3.54155059005892
H           0.31753658521806   -7.82790247305218   -7.52245723957005
H          -2.84854375619708   -6.88610277981419   -5.47576535159385
H          -0.43074839290344   -5.80542265263704   -8.61580937284052
H           0.26131088821503   -5.45507095983353   -7.02300477854618
H          -0.77115862621920   -4.27165752642080   -7.83058710377167
H          -3.10759555887430   -4.62117615018684   -8.18183501874481
H          -3.98202005237988   -5.67145113199251   -7.04580634327970
H          -3.53708445912348   -7.52511235284121   -8.49545080943586
H          -2.55323382763487   -5.42682804005697  -10.30893574157750
H          -3.14516372565110   -8.41946301341501  -10.68480718326620
H          -2.02490723840576   -6.27010036451482  -12.58823828828672
H          -1.62787681914250   -7.17790158292122  -14.99838498359889
H          -1.99028866641985   -9.29886011731641  -16.40632298031833
H          -2.55646078465712  -11.42488489510898  -17.21922724260983
H          -3.37981449684502  -13.83904699672213  -17.55479612317702
H          -4.48061547536515  -15.82495477045049  -16.16588464364544
H          -4.81522995919547  -15.53134402592939  -14.38182979076432
