91
 SCF done       -186.672351990601          0.000344446892
C          11.39925817464580  -15.83256278450004  -13.69942965353031
C          10.08771138472781  -15.87088475601006  -13.43069091001061
C           9.09177510635515  -16.70082093559251  -14.04902061842582
C           7.84298994314102  -16.51905593600585  -13.57071018402195
C           7.74629331455733  -15.53783350951985  -12.53976523250245
S           9.31654761136445  -14.85062746453795  -12.20331263408014
C           6.60917782772015  -15.14176946745854  -11.87641216661130
C           5.28767959521987  -15.62132302433920  -12.06808470621726
C           4.37122855318456  -15.01686484319496  -11.27269095151715
C           4.91348674856806  -14.03123736455263  -10.39792736231890
S           6.63932431821131  -13.91473910409555  -10.62154077693184
C           4.15730288950040  -13.23943271850485   -9.57184508101718
C           4.60316439050417  -12.26576969040458   -8.66027740713959
O           3.67336987122874  -11.35474064464698   -8.23428345942997
C           5.80925584802654  -11.97145156496039   -8.03350798358075
C           7.17631967283674  -12.42067084917605   -7.79849409809095
O           7.78123298655866  -13.39484818547116   -8.17433053031050
N           7.70388573927325  -11.45787880593786   -6.93233923924630
C           6.81268744575314  -10.47344289701479   -6.52568507208480
O           7.06293004346463   -9.57466920291538   -5.76235877687122
C           5.57848816480535  -10.82269512518129   -7.23103235503226
C           4.25523436239340  -10.46963916273859   -7.37856483017796
C           3.51884694440467   -9.39123780641643   -6.81784133132838
C           2.21191290432630   -9.16260621858271   -7.07231281930836
C           1.50759705360264   -8.03584929317357   -6.54521998545966
C           0.21852527966701   -7.71750610020048   -6.75570230134480
C          -0.75116665560779   -8.49211894537545   -7.58601213672409
C          -0.33208770461374   -6.42078644979917   -6.20589960344760
N          -0.34962032082166   -5.42379952327326   -7.25634198184141
C          -1.39734084792692   -5.21970615104933   -8.06396730071287
C          -1.32278160711134   -4.58530775803162   -9.26550077486598
C          -2.44698161116269   -4.31320701813291  -10.07528454089728
S          -4.06661305978631   -4.62018360121596   -9.54770047774692
C          -4.75783148736367   -4.02164133038438  -11.03893813616613
C          -3.74732647977095   -3.59772688296221  -11.89588576868082
C          -2.45365008065877   -3.77590144968736  -11.36454591968755
C          -1.14450264448030   -3.49631956710534  -12.03528864388128
F          -0.44680548407980   -2.53471076419456  -11.39347172603142
F          -0.34652921358166   -4.58951544976508  -12.01445175142800
F          -1.21252610638073   -3.12698784320324  -13.30832488109951
C          -3.96815973947511   -2.97579570711333  -13.24603332971834
F          -5.25187807586284   -2.71513458110513  -13.52605515512776
F          -3.33762895660706   -1.79643811839991  -13.35578109407632
F          -3.53384289515323   -3.76295194415196  -14.24296404266384
C          -6.16336696815811   -4.03928532345848  -11.20272855811286
C          -7.02434413019204   -4.45749127231217  -10.23397164879400
C          -8.42118573528192   -4.44396460217921  -10.42808650408568
C          -9.34247767823136   -4.81422878304202   -9.48657757833780
C         -10.78647249128503   -4.79033975323723   -9.62641834337053
C         -11.50417334807235   -4.47690307200225  -10.75186754097295
C         -12.91359731089417   -4.47388652075185  -10.81693995529084
N         -14.05527481348364   -4.45036923869642  -10.93550454812804
C         -10.96125654164354   -4.12813027478530  -12.00655025447565
N         -10.60814837106199   -3.84410284369627  -13.06163999652996
C         -11.36276436840860   -5.18082785370033   -8.34374178309354
C         -10.31190443693020   -5.47612242889775   -7.44165701056050
C          -9.01438745559492   -5.27589538424649   -8.11584544353086
O          -7.91784372234714   -5.45734595691358   -7.62742718266441
C         -10.53604517284077   -5.87641466220227   -6.14695083730389
C         -11.86244846622205   -5.98826637053125   -5.71827920665565
C         -12.90680253226326   -5.68904966959025   -6.62540625905161
C         -12.67970752546153   -5.28676061897481   -7.93540914447144
S         -14.46860383520079   -5.88825386743100   -5.89045756587941
C         -13.70801943485141   -6.36413449498576   -4.39538443623364
C         -12.35458307538890   -6.37446881955398   -4.44173609661980
Br        -14.77181419550004   -6.80219513659112   -2.91438379684193
H          11.82476573797545  -16.46989025843483  -14.45460722483604
H          12.06436004506204  -15.17097996323000  -13.17548928462230
H           9.36066550568748  -17.39654178299939  -14.82396453567404
H           6.97674589284644  -17.05405695214333  -13.91685485409708
H           5.05609928801367  -16.38994829522857  -12.78320160043940
H           3.31894269394134  -15.23999278292828  -11.27356513336002
H           3.08201156865581  -13.32148735389288   -9.65844308849397
H           8.65200028240147  -11.51059627202806   -6.58888789122673
H           4.09021568891008   -8.73981322276659   -6.17212399321327
H           1.68884703653540   -9.85017423443103   -7.71995899867590
H           2.10074419395187   -7.38002295147201   -5.91861009954194
H          -0.29841737908256   -9.36722550994870   -8.03770982976152
H          -1.15183072280134   -7.86144233267087   -8.38131162345456
H          -1.59017334337745   -8.81623662483717   -6.96954131849322
H           0.29092928548477   -6.05062016774385   -5.38787239495051
H          -1.35395366827070   -6.55409178811617   -5.84382631670413
H           0.55885913749457   -5.15815234691433   -7.61384655002800
H          -2.35473853664084   -5.56127863109174   -7.69026945333535
H          -0.35556202523934   -4.27288255927448   -9.62785271115099
H          -6.57079381891945   -3.70234387235432  -12.14384165991627
H          -6.64500351558824   -4.80100722747578   -9.28166293158413
H          -8.76936616961528   -4.09631157146924  -11.39219698810379
H          -9.71275733127219   -6.09447507450396   -5.48499038482087
H         -13.51046725545338   -5.06954995443044   -8.58524578785144
H         -11.72783418485181   -6.64243078202172   -3.61093392318972
