92
 SCF done       -146.909794555212          0.000524556380
C          17.63354741407217   -9.83527313595091    1.61743374511699
C          17.13281792983312   -8.92898427763919    0.76691658973502
C          17.81539425098124   -7.82036579583067    0.16337594019819
C          17.05103362615287   -7.07865514575238   -0.66817789197535
C          15.70806849828289   -7.53082901994943   -0.79277291677690
S          15.45214802347988   -8.94925413296747    0.20660312287278
C          14.70831965296038   -6.98711567379749   -1.56077568192338
C          14.75529251741638   -5.82723594926433   -2.37363210074827
C          13.57621165220130   -5.53943487906844   -2.98218740224004
C          12.51629500383040   -6.43912631165334   -2.68279177720817
S          13.10534837912502   -7.70016021766088   -1.61755101876785
C          11.25154844886126   -6.34291713404237   -3.20755988166224
C          10.10973769903054   -7.14328403762413   -3.01382012482505
S           8.99296625516390   -7.19704388648873   -4.37023504051136
C           8.07561912653285   -8.44317902783542   -3.61771350975480
C           8.54644683323913   -8.78815899032801   -2.39580800462503
C           7.91039405987674   -9.82984076065169   -1.53566106652634
C           9.68756437001019   -8.01271021430344   -1.99663650721309
C          10.18395421931460   -8.07039418794207   -0.66740844353681
C          10.86794817528104   -7.07864777181537   -0.02700664294972
C          11.36865694862845   -7.19637272160619    1.28202542855428
C          12.07066773319532   -6.20195409105727    1.90938264673848
C          12.56553641556131   -6.29055676755316    3.21215076153183
C          13.22244857988103   -5.27023979913708    3.86441763261442
C          13.64489799921689   -5.24846715743384    5.21042802872239
C          14.15150038268122   -4.04732651653311    5.61946071463946
C          14.14989817704420   -3.05859225791005    4.61796806076216
S          13.56987460145656   -3.72439176006222    3.10719774967118
C          14.46839654540397   -1.71635834689443    4.75544003396201
C          14.86775437346987   -1.04069197597775    5.92196616023853
C          15.01243249140667    0.30616189814662    5.75461090412937
C          14.72570359708731    0.77792107873283    4.45173253528467
S          14.30396360696981   -0.58758904011309    3.42957941187330
C          14.86353654927306    2.10376460550824    4.08990027064395
C          14.62166914377842    2.81812853114535    2.90882794211068
S          15.49082469247782    4.33509641378772    2.76314704333819
C          14.86316895935436    4.58111505199178    1.18211321478428
C          14.02581171395317    3.59796468806586    0.76728099691005
C          13.34664311842837    3.67021529617722   -0.56093238523683
C          13.83778755329475    2.57767346009810    1.75917724388251
C          12.89940159328567    1.51713752184721    1.73800426959035
C          12.28911288151455    0.93637456841558    0.66205940812399
C          11.43903615197372   -0.18636481159362    0.72625909731134
C          11.10917687522714   -0.89542343055699    1.85389006469262
C          10.42867602283768   -2.11200953425948    1.84039767083214
C          10.27861547128494   -2.91102646549872    2.95278549220694
C           9.78691808760136   -4.23396863575772    2.99647624149972
C           9.92082113538881   -4.84311787113657    4.20832629557514
C          10.50288062055342   -4.02022661098360    5.19987217830677
S          10.82094754220906   -2.42563648052498    4.55272944418657
C          10.85295021349408   -4.35536169119362    6.48772111778482
C          10.71049043231977   -5.61459321206798    7.12696140563537
C          11.17847169538684   -5.65447152836196    8.39571235202760
C          11.72487268376951   -4.41456825846716    8.86456377720777
S          11.60022871687930   -3.20272935591898    7.57790365800997
C          12.25697333713474   -4.15254001530198   10.06709731743628
H          18.66165252235229   -9.78564682303739    1.92990632643127
H          17.03245373705638  -10.63432408203692    2.01066217903181
H          18.85162639997477   -7.63086451707219    0.38132391868297
H          17.40028201214933   -6.21446240301274   -1.20519186425716
H          15.64903648572029   -5.23814985444881   -2.47349946117812
H          13.41813860938869   -4.69584114571734   -3.63160016814717
H          11.14001525665714   -5.58740741686574   -3.97866123732176
H           7.22540165929653   -8.84651293637369   -4.13245821135395
H           7.07840291026929  -10.29320721393193   -2.06000104239975
H           7.53760303261338   -9.38747395724632   -0.61233487473053
H           8.63346631510078  -10.60261437951623   -1.27694652381994
H           9.95164398802076   -8.96741579365158   -0.10927588437556
H          11.01684746238366   -6.13137124928465   -0.52802116374966
H          11.20935175221809   -8.13266758867460    1.80169831072842
H          12.24634005535618   -5.27404118591015    1.37760409761900
H          12.40373949051585   -7.20624632951013    3.76636066075520
H          13.54068715747026   -6.11127462290776    5.84517810532785
H          14.49538395968694   -3.84611045220851    6.61791852285382
H          15.02356161227996   -1.55339422040381    6.85373604261995
H          15.30003028365542    0.98306927048999    6.54010198107424
H          15.32373805971568    2.70724101396884    4.86667749659717
H          15.14711210173747    5.46397613860579    0.64273921906485
H          13.53256794724846    4.64062862178155   -1.01630558857419
H          12.27222483349497    3.53642516342909   -0.44817940416011
H          13.72764478793326    2.90160553475334   -1.23254345117402
H          12.66290681526444    1.12499060482828    2.71503921629517
H          12.51370165281792    1.29057903181375   -0.33142107024144
H          11.06828621928310   -0.56193837711943   -0.22024198116747
H          11.45057350360050   -0.55224862305320    2.82035002578185
H          10.06861325601564   -2.50372662258017    0.89745080206853
H           9.38481678313165   -4.71207754596655    2.12035474735715
H           9.62721967131368   -5.85723226026505    4.41061750462236
H          10.26927076194149   -6.45192433620617    6.61530881285078
H          11.16105647995309   -6.52159420146716    9.03212872023700
H          12.31169869355908   -4.91694109507646   10.82182198436882
H          12.63813095208416   -3.17948037319429   10.31650767987037
