85
 SCF done       -152.275496982815          0.000256148471
C          -0.40937615270816   -5.31707079684881    1.25518029548464
C           0.69627964353684   -4.77306615209606    1.77982601928661
C           0.82486523354911   -3.50071106660978    2.43229449333245
C           2.06873942512340   -3.22285430538022    2.87688945565883
C           3.02469705117493   -4.24579163231716    2.61752290154274
S           2.27414645962175   -5.57601826993726    1.75675483944451
C           4.33848535425039   -4.27075842370636    3.00530503666006
C           5.02530115401251   -3.35189104984029    3.83889473218459
C           6.26687187480537   -3.75460084562363    4.20215999175822
C           6.67744280526550   -5.00108372771548    3.64725961123013
S           5.40108563070454   -5.60559992851721    2.58290443363468
C           7.91077155898981   -5.54926869386343    3.85551865607557
C           8.57261394084733   -6.64204035319187    3.24139186037552
S          10.28070501002680   -6.34171166412080    2.98408428884441
C          10.45263800435827   -7.69033540647145    1.96916006439896
C           9.27762913858919   -8.39989752747532    1.84857648744240
C           8.19993248243624   -7.84623367854663    2.62846748502369
C           7.01050376525747   -8.61985810079971    2.76232517738512
C           6.82999085052976   -9.70253521888991    1.90820001635468
C           7.86336811359779  -10.15337334618166    1.06033699347102
C           9.08428404047524   -9.55587845133865    1.06065571615397
O           5.63123159050445  -10.34725205883561    1.91117141436617
N           6.06927610911162   -8.32650970234362    3.74366360561495
C           5.29892539227984   -9.22027877539204    4.39816890656985
S           5.76207916615982  -10.88006457452264    4.55549563852623
C           4.32429303989736  -11.19601041435584    5.47824740973035
N           4.10868281482066  -12.49673164192507    5.91020545090556
O           3.09611276735573  -12.73021478152626    6.55362440295378
O           4.95669046823890  -13.32901012572746    5.61102993519110
C           3.54086567325099  -10.08323021782995    5.64814709263464
C           4.08398163934556   -8.93320108656639    5.05127417612406
C           3.47291039424450   -7.63829642541610    5.09093045202743
C           2.13487886910553   -7.44394178622586    5.22375471275848
C           1.48080968867743   -6.20156535147334    5.36626346496942
C           2.01779692939335   -5.01167453180813    5.79043829684797
C           1.31620410719989   -3.78991070506122    5.92735281356138
C           2.05488524492750   -2.76626956726937    6.44524410021321
C           3.38331679966833   -3.11820381475627    6.74955497428864
S           3.66768045272279   -4.79872113300329    6.35753642904741
C           4.38677632340647   -2.31100526632263    7.26544328653757
C           4.32445654282194   -0.94456125152210    7.58425299219934
C           5.49974167786073   -0.43578612639981    8.07129836430635
C           6.54163864968575   -1.37265087653403    8.16214867404569
S           5.98423284300040   -2.93970964768395    7.60549651357190
C           7.82980012108467   -1.14707855685174    8.62568385547951
C           8.81860842830957   -2.10702236843213    8.70684753006766
C          10.09717534054239   -1.88424594441489    9.19553512073542
C          11.13190873092288   -2.82951730444978    9.31584380631608
C          12.28812903428492   -2.33429687096249    9.85143207795766
C          12.22254272113109   -0.96503523640730   10.17950699160090
S          10.64123817350639   -0.32482930998283    9.78125296753163
C          13.20874662719295   -0.17551045700888   10.73833228937477
C          14.51768409906959   -0.57051358203642   11.11546596053729
C          15.27016325898813    0.42229228484976   11.64732766345790
C          14.60491887723555    1.68812937954158   11.72955558597446
S          12.96367331502979    1.52317137493217   11.08525017132516
C          15.08930195723721    2.84518738885599   12.20562716910335
H          -1.34882449268578   -4.79411433924227    1.29022223370378
H          -0.39626412602373   -6.28362684615034    0.78610058771734
H          -0.02659034181051   -2.85201350222749    2.53883457137877
H           2.34536059400034   -2.31678323428849    3.38620442599927
H           4.56588618508026   -2.43691910044543    4.16707939677691
H           6.91825694977545   -3.20203254977781    4.85496124396562
H           8.56681730673702   -4.93272373873695    4.46107766887965
H          11.39123637405218   -7.89762192667184    1.49614163235995
H           7.67214145304350  -11.01604848679638    0.43709472760412
H           9.90144134522978   -9.93842592564804    0.47105465473852
H           5.65700257277866  -11.09109476875918    1.29724841872107
H           5.90267764418663   -7.34953634396628    3.94883288254165
H           2.62162320092638  -10.10806814647197    6.20362143029996
H           4.12206225744070   -6.78352065548110    4.97029523240179
H           1.48700982687592   -8.30925860124614    5.17688727510723
H           0.41595319403374   -6.18793566552628    5.16987026304984
H           0.28257725799996   -3.70783773497088    5.64053417287515
H           1.67297015814626   -1.77682961750861    6.62451875267751
H           3.42673992335782   -0.36750493467808    7.45210331265543
H           5.63883783684401    0.58902082773596    8.36772058391563
H           8.06134223511713   -0.14112453238848    8.95273434180725
H           8.58860434045121   -3.11336861795289    8.37862323929202
H          10.99624950608798   -3.85173151545164    9.00825352763855
H          13.17522695428804   -2.91878561852882   10.01643050362354
H          14.85842346625834   -1.58189473617609   10.98092458376027
H          16.28311828151716    0.31034650602195   11.99085267367841
H          16.09254236212884    2.90306119661665   12.58906551417503
H          14.49826448162751    3.74226031361380   12.22046929640021
