95
 SCF done       -156.197287706109          0.000777006217
C          14.66068525342860    0.78182765714564    6.02218512201956
C          13.62817464104828    0.99547733197280    6.85461641830901
C          13.64456797647442    1.02309247257924    8.28996931016726
C          12.43958344658127    1.25471462172131    8.85552292796974
C          11.37606121411691    1.42938032542631    7.92668778115558
S          11.97633732081617    1.27634484465926    6.28351917053615
C          10.05451400789072    1.67605758790689    8.19847947354794
C           9.41050780774176    1.72831091803933    9.46298144924285
C           8.06544126681447    1.87928144190919    9.38260368775385
C           7.54948107807872    1.93098068281560    8.05493146644394
S           8.88141794588652    1.90308138582084    6.91382109761726
C           6.21704700775686    1.98603892173589    7.74847810004094
C           5.53941723813059    1.93953891032448    6.50771358943514
S           3.98748510969154    2.76313032362468    6.48400907412393
C           3.81994546937271    2.48960102460498    4.79806042958982
C           4.85381298356759    1.78819014446289    4.26850665399224
C           4.93155736757694    1.40231138173502    2.82832193461536
C           5.83718733687323    1.42351925460524    5.24359204138301
C           6.92024569946956    0.54898174197921    4.90369410853396
C           7.56602809924081   -0.27709863750376    5.75600228255952
C           8.73818184155275   -1.00918989366974    5.40226131243445
C           9.55024497681981   -1.58300666774133    6.31484562150101
C          10.80990225912312   -2.17245450890170    5.97851198342084
C          11.74679442029834   -2.56788654056320    6.85584606381393
C          11.61966649198173   -2.42094899211107    8.33907845811753
C          13.02955253221278   -3.19483238723991    6.36298103381348
N          14.18845153657050   -2.44562440276767    6.78646903342384
C          15.03521662723935   -2.85663297759570    7.74322796666228
C          15.96750735644171   -2.05574248899392    8.32190449044451
C          16.98345562047372   -2.42861370049381    9.23752015411468
S          18.34271032317842   -1.34063438686845    9.33049334550645
C          19.21821219611680   -2.43692484302424   10.33608829189662
C          18.53089746593187   -3.57006089464707   10.59757037955314
C          19.06625818949971   -4.67151125442138   11.45181877122759
C          17.21053605635739   -3.57120866384323   10.01852759797826
C          16.28913367518814   -4.59745326277525   10.35439273469620
C          14.92668923251169   -4.51717686854841   10.38471793414019
C          14.11488710124804   -5.60026363143701   10.75541671251827
C          12.74406605737713   -5.55641104129297   10.79402816037646
C          11.98581781923342   -6.66402255514413   11.18509767714305
C          10.60935027085982   -6.72016624783709   11.23323454467026
C           9.81604498106666   -7.83184806409392   11.69856980088509
C          10.26501930842215   -9.06172355794147   12.11925264976807
C           9.42490850355231  -10.10470669914238   12.55626210961553
N           8.79990777746286  -10.99663722638966   12.92250139417090
C          11.61033020653585   -9.47657363583977   12.16968797651970
N          12.67535308705104   -9.90366311403351   12.24247981133379
C           8.41202153303857   -7.43021406227600   11.64196570004594
C           8.33745650712885   -6.12016736919948   11.11082911915363
C           9.70453310854800   -5.63447108586184   10.82436216309659
O           9.98872862237981   -4.55477253111568   10.33532859623276
C           7.14677672778152   -5.46205087270144   10.92731906403480
C           5.97018212699469   -6.12586932290600   11.29304554483282
C           6.05537536498302   -7.43058765190948   11.83014903192527
C           7.26086270555675   -8.09887170210354   12.01098465905562
S           4.48492412314612   -8.06515488644060   12.22236571243551
C           3.74641311972045   -6.58742527053757   11.66498565159939
C           4.62680013768812   -5.66595353216717   11.20874702491846
Br          1.88066074750757   -6.39968047330089   11.74054537753326
H          15.66065509679140    0.65113155992131    6.39799766535762
H          14.53302236312867    0.78647670468474    4.95507857567022
H          14.55896037968463    0.87112598397455    8.83580505364697
H          12.26908543681914    1.31157768266383    9.91613233515083
H           9.95644181545940    1.62759336112405   10.38371644227438
H           7.40638134376188    1.91690360359090   10.23253590732133
H           5.56556859055255    2.16377055372563    8.59830671446334
H           2.95235685851471    2.86426891524598    4.29079016164991
H           4.06370681329221    1.77641759939492    2.29123475006123
H           4.96669727607891    0.31846442143659    2.72543967195997
H           5.82907726061447    1.81773975373394    2.37087834868634
H           7.22885599280661    0.56309685616542    3.86659874587655
H           7.21877800232908   -0.37119116531753    6.77606442158450
H           9.02992252877681   -1.00011804842278    4.35964392184132
H           9.26815719813193   -1.56260418793163    7.35813845309217
H          11.00808306528494   -2.28107899193716    4.91894929794708
H          11.21494618175128   -1.44558036405651    8.60348138179385
H          12.59110424314928   -2.52649351803696    8.81768757335882
H          10.95373142148947   -3.18031695179367    8.75086194938137
H          13.02001753537073   -3.24828053198644    5.26891476059870
H          13.11882578802958   -4.21133784106896    6.75994343347086
H          14.19884552613322   -1.46186086461491    6.53781767471617
H          14.97546599174554   -3.90771735583293    7.98858440449565
H          16.02389964131531   -1.03057929793342    7.98072163637537
H          20.19825286166732   -2.16420124538682   10.67400851077428
H          20.08286494313503   -4.44265178380878   11.76094910221194
H          19.07527428697828   -5.61277423394322   10.90310914872787
H          18.45283250834751   -4.79960404143436   12.34308150409526
H          16.73321069798287   -5.52164550103444   10.70386672339212
H          14.43909384472202   -3.58150042698481   10.14984027937428
H          14.60752765054135   -6.53249776384371   11.00794884164459
H          12.23021154467133   -4.64642282399944   10.52350369157221
H          12.53994355521661   -7.54263082303908   11.48946451385389
H           7.12108330816745   -4.46457268413338   10.51675568435915
H           7.27123723318285   -9.09358476578304   12.42356713300821
H           4.34316220496977   -4.70147685101655   10.82843181255294
