130
 SCF done       -224.567098054627          0.000211832185
C           1.76044477300027  -10.37000480437239    4.14949818963214
C           2.45240522189517  -10.41599948410611    3.00450326057425
C           3.81462536325974  -10.83347112430600    2.81880152104506
C           4.24908277271677  -10.77379713105834    1.54331875868882
C           3.27561575472755  -10.30678988191625    0.61094639219847
S           1.77055969613790   -9.94568810694938    1.43880954957631
C           3.42822822624734  -10.14307597029161   -0.73908677442590
C           4.59294655540104  -10.39392137758786   -1.51928914122863
C           4.44799771702795  -10.13323036172243   -2.83684178042654
C           3.15064536479741   -9.65336893234456   -3.20631276611267
S           2.12350331023501   -9.56402498039301   -1.76566012467096
C           2.72021958045020   -9.34869041754486   -4.44866311441227
C           1.36117045797696   -8.91336765820670   -4.75855133643128
C           0.57829742999641   -9.72198225827167   -5.59106565391956
C          -0.75475636479806   -9.45907528252080   -5.82958205424748
C          -1.36515242179783   -8.34627317348145   -5.26299309285485
C          -0.59682074530477   -7.49873557223049   -4.49933817250235
C           0.75498388376831   -7.76752017373500   -4.24719263573372
N           1.30356149765681   -6.71894790842336   -3.51689137808396
C           2.69457524880047   -6.50244654673405   -3.22171355509486
C           0.37157382022825   -5.75083250139684   -3.25227650910223
O           0.60025800047339   -4.71796230340740   -2.66703223145771
C          -0.94725378180274   -6.18173948457776   -3.88140289112834
C          -1.36744327747735   -5.13246236911223   -4.93358447428117
C          -2.73236750275512   -5.48727008713273   -5.52201491740818
O          -3.78209795898198   -5.58571861477728   -4.93205174877283
N          -2.56308038560976   -5.70777750379994   -6.86199230570002
C          -3.62981031858212   -6.10052641206141   -7.74211366552899
C          -1.24139743405374   -5.53652141890938   -7.24492389104885
C          -0.67578300961510   -5.69931599234221   -8.48990938841613
C           0.70340002058117   -5.48636732344803   -8.63472949591878
C           1.45346278795247   -5.08210411693581   -7.52575917444628
C           0.87104345295716   -4.91058511942349   -6.28011466803928
C          -0.47718530101840   -5.15347223862313   -6.13590125088901
C           1.28756539972474   -5.70223497385968   -9.93985276424646
C           2.60158528337132   -5.74089236458834  -10.23149988473898
C           3.09377100040456   -5.99735542517163  -11.54461266107521
S           4.81673978611040   -6.12104739705008  -11.86312057759609
C           4.61989909440914   -6.48629917445973  -13.54730675487265
C           3.27189423120690   -6.47330646640332  -13.85408879285837
C           2.43118423744256   -6.20967322763659  -12.73128735940628
O           1.12959141580374   -6.20498723702047  -13.10803337115211
C           1.14684488251255   -6.43908348248215  -14.45663156411778
N          -0.08929816644322   -6.49919652661740  -15.12990204980447
O          -0.04577951723747   -6.76729970804852  -16.31955101221743
O          -1.10251033260103   -6.29602927410959  -14.49299318572218
C           2.40435597640627   -6.60526460260549  -14.96923245035154
C           5.70447278942718   -6.65987180868554  -14.49003301645866
C           6.72195429408543   -5.70087105979967  -14.57705461280034
C           7.64371147854753   -5.71138492723021  -15.60216965415414
C           7.57684257383002   -6.67566977171843  -16.60367603963617
C           6.62492022509266   -7.66215583301356  -16.50117792762925
C           5.71940103379353   -7.68970411906740  -15.43221093869107
N           4.97839724566172   -8.86150474149152  -15.48607609322258
C           4.09707390623124   -9.39096007870925  -14.48140422010270
C           5.31926135861862   -9.61606535452364  -16.57973916941999
O           4.85202696398260  -10.70042089098705  -16.83643872909579
C           6.32918554071494   -8.82069103839653  -17.39714247985660
C           5.61881422344262   -8.38959610969654  -18.70598863206341
C           4.22050863051768   -7.86543047289914  -18.36117467799819
O           3.95787612287195   -6.91598540438696  -17.64989271577348
N           3.30741518661640   -8.67293352921597  -18.95632783183426
C           1.88236456754028   -8.53436164363148  -18.80887907601400
C           3.92252911621404   -9.68828561804766  -19.68203656956342
C           3.33978874235557  -10.70323876520172  -20.40409466380705
C           4.16951778696715  -11.63828499181388  -21.04453748380406
C           5.55953000848320  -11.49201433881549  -20.95018357823633
C           6.13325359351974  -10.45979918062298  -20.22807897509201
C           5.31201092209740   -9.55559629576992  -19.58944848736106
C           3.54689124846527  -12.71599750151576  -21.77107507250772
C           4.15736450835678  -13.81918532339225  -22.26607420859938
C           3.46823822220231  -14.84456327735253  -22.95036746926819
C           4.04684868012195  -15.99326484194167  -23.41018225498124
C           3.40015213071926  -17.05860210421834  -24.09483993850042
C           4.21379441294863  -18.09301231416354  -24.42261274061588
C           5.56353092526064  -17.91875481210105  -24.01852908958773
S           5.75470718253708  -16.37343727503167  -23.21059119361865
C           6.60971956185227  -18.78976764146246  -24.19120692874883
C           6.57498741618852  -20.06796923177492  -24.81809356243992
C           7.76056168901848  -20.71422830212009  -24.83484625207171
C           8.83870915336318  -19.99432388729114  -24.21837794661186
S           8.23245519888736  -18.44038665996630  -23.62289471504272
C          10.11317469115257  -20.38428763541101  -24.08439323244164
H           2.21520336333208  -10.66638184820565    5.07827559167030
H           0.73889763293402  -10.03830514186601    4.18014446698753
H           4.40548512133172  -11.15937246425188    3.65658825545253
H           5.23964629347111  -11.04856796552697    1.22626098026823
H           5.49898523114743  -10.76114070719886   -1.07103179902305
H           5.21824576593941  -10.26222839249718   -3.57688629402117
H           3.37856690696260   -9.55053737788613   -5.28389030577168
H           1.03552898827509  -10.60048226312831   -6.02263304039509
H          -1.32797000853033  -10.12781593028942   -6.45322220891910
H          -2.41331636003118   -8.14817247150437   -5.42331105231843
H           3.30418876695716   -6.72338877802646   -4.09880892001285
H           3.02966680732947   -7.11681463032542   -2.38555104311349
H           2.80231710791462   -5.45249186875976   -2.94619507011720
H          -1.73832274379296   -6.25332911633211   -3.12991659997843
H          -1.40493438093946   -4.15667908979955   -4.43983201789202
H          -4.54248103306877   -6.14755916196272   -7.14892246923275
H          -3.42596710268616   -7.08127011725174   -8.17737979007015
H          -3.75503650249049   -5.37065597103062   -8.54397522553482
H          -1.26762218228871   -5.99610524016824   -9.34176961221909
H           2.50778890654672   -4.88638644116680   -7.63821639153742
H           1.46485575774170   -4.58409434522742   -5.44038043291796
H           0.58296855154605   -5.87379596804085  -10.74278337187310
H           3.35607602973506   -5.59895965543596   -9.47202715521883
H           2.68178060191029   -6.75577112312471  -15.99490516976790
H           6.74660506851408   -4.91664126656987  -13.83504608318313
H           8.40402627515601   -4.94719070499311  -15.64370404101795
H           8.26777272422967   -6.65754696683691  -17.43259705602931
H           3.09336681282104   -8.97056174374930  -14.56868890518501
H           4.49075296449630   -9.18724979201447  -13.48567973568819
H           4.03929502802559  -10.46830937702365  -14.64463307345860
H           7.20409352238463   -9.42252360755261  -17.65064940728636
H           6.21404632645655   -7.61413046380462  -19.19528265910658
H           1.67362566339828   -7.65796842597337  -18.19703192183465
H           1.46631572435008   -9.41816563448177  -18.32208844056864
H           1.41272299190162   -8.40704282776545  -19.78544742100839
H           2.26710931819520  -10.80266177712481  -20.46480872996856
H           6.20213289445862  -12.19622159387272  -21.45343082876398
H           7.20787668348604  -10.37031716437736  -20.16720835557529
H           2.47406861036379  -12.63209625641349  -21.89782856426803
H           5.22047415284574  -13.96631442746638  -22.13286349723495
H           2.40576018501189  -14.72146418758184  -23.11713128671068
H           2.34811578134333  -17.01632953007795  -24.31700594739916
H           3.88910552803782  -18.97817381767423  -24.93978904286479
H           5.66449709191550  -20.46178201511471  -25.23413560917958
H           7.92584499995492  -21.68735341441101  -25.26238649165708
H          10.43736641843828  -21.33838917729243  -24.46092393496505
H          10.84671665851363  -19.76526648660221  -23.60153716588274
