81
 SCF done       -150.937854023223          0.000704154097
C          -3.90467651896268  -14.54343486430391    1.37176732468311
C          -2.98889417117172  -14.66683482976420    0.40133015790121
C          -2.85322204065003  -15.73348815242243   -0.54892526694154
C          -1.82468237371092  -15.58573460961702   -1.41283644782548
C          -1.06218944566064  -14.39995064719090   -1.22262626623653
S          -1.71619491575639  -13.46916746938244    0.11311835828825
C           0.03686564685577  -13.98454470957981   -1.93341574925341
C           0.67530192067863  -14.63110191278563   -3.02119514437260
C           1.75424908546590  -13.96163365628962   -3.50201774062793
C           2.04338729115758  -12.74397516913434   -2.82894135874457
S           0.86629442167039  -12.48422386671415   -1.55296640840933
C           3.08333450397774  -11.90036060219969   -3.11752759332342
C           3.40872492480221  -10.69368166508760   -2.47514967874907
S           2.46538907765192  -10.05734692738303   -1.15612955587995
C           3.52399315928433   -8.68313461243449   -0.98911346508674
C           4.55550892194878   -8.73741934068829   -1.91805806785768
C           4.48528358755734   -9.85229209330570   -2.75891977336650
C           5.49103193962422  -10.11303371528884   -3.83736026324812
C           6.29623348016679   -8.85389070789570   -4.14669119332713
C           6.81716686536743   -8.22031723233664   -2.84823541997540
N           7.75813391386789   -7.13084560255086   -3.04517955028067
C           5.63028897733557   -7.70246488547360   -2.03334173020705
C           3.27105357025493   -7.69252272984470   -0.00388241853180
C           2.20808182640538   -7.72936287227256    0.83091018961965
C           1.94015190074442   -6.74644604973141    1.83094504112956
C           0.88136665527840   -6.71770047723762    2.66061162181614
C          -0.21807654054674   -7.72910370139212    2.69311035324537
C           0.77172107368425   -5.63110173327011    3.70522645702868
N           1.17157636441459   -6.11637970140455    5.01291540279347
C           0.35692546810630   -6.72836740385857    5.90573562263043
C          -0.99541754717006   -6.76332620508733    5.88112403384769
C          -1.79824914937466   -7.40816761556516    6.86532788990362
S          -3.52473510986747   -7.38422211670262    6.68204040437050
C          -3.78353503339323   -8.31774899045207    8.12079368634078
C          -2.56618035008539   -8.64332262285574    8.69650168031091
C          -1.44603047832345   -8.12154014038438    8.00053787693215
O          -0.14387207760020   -8.26814051061031    8.36738966686998
C          -2.44147238039017   -9.49768583826966    9.90951061934816
F          -2.35665364627319   -8.76452093480336   11.05102213958405
F          -3.46261211299190  -10.34058612917655   10.08515968168118
F          -1.32667004363628  -10.25800978136047    9.90175352973845
C          -5.12711302472618   -8.65229682056704    8.51044277595644
S          -6.23981928902215   -9.25510271863826    7.30595404341269
C          -7.50585061635488   -9.35794021566783    8.44024936302189
C          -7.11385664903178   -8.94945602004478    9.67995508895299
C          -5.75304772435984   -8.53228371186090    9.73179264080091
O          -5.24821657456626   -8.04583926004708   10.87735798917746
C          -8.00650050405882   -8.90771759040337   10.87556998675686
F          -9.24620030054329   -9.34253649987980   10.58570749546251
F          -7.56666786254980   -9.67158311236139   11.88440400973018
F          -8.15221316472622   -7.66784804220033   11.36902894109630
H          -4.65942321890277  -15.29660323952904    1.51332905267130
H          -3.91576389384497  -13.69806760929636    2.03464909179355
H          -3.53526095569156  -16.56517545034824   -0.53948324942652
H          -1.57803285912058  -16.28927245730352   -2.18832548484308
H           0.32021225876152  -15.56766201248844   -3.41240011133910
H           2.36347428204380  -14.29935811300654   -4.32243790319062
H           3.73397254468022  -12.20133948398619   -3.92825233557402
H           4.99009045258972  -10.46410137087545   -4.74294123494029
H           6.16940982385666  -10.90794600810160   -3.50807752514300
H           5.66366706113060   -8.13018291608644   -4.66817553083724
H           7.13355463055283   -9.10608320781465   -4.80292959207539
H           7.33973666281709   -8.98985597172169   -2.26673769828409
H           7.33704428204612   -6.40272574891075   -3.61395249930612
H           8.58709108713060   -7.45893858407248   -3.52863299246843
H           5.22527529095190   -6.81149238829916   -2.52601974809625
H           5.97907292460277   -7.39708288882985   -1.04586393231000
H           3.97932587675827   -6.87668792971836    0.05582506710709
H           1.52162836504059   -8.55807774528294    0.73218405246453
H           2.67051107962228   -5.94813669988182    1.90435677290568
H          -0.07824566911046   -8.51520888401519    1.95940976499424
H          -1.17421825968957   -7.24264664751315    2.49783860645014
H          -0.27917966262743   -8.18409667799673    3.68199567277579
H          -0.25227660876418   -5.26117837359299    3.77253245443615
H           1.42619968459014   -4.79229282169812    3.45070588158948
H           2.15338627390228   -6.33319737360040    5.08926960928130
H           0.87348047778268   -7.19031560969459    6.73302829095323
H          -1.55262772846501   -6.30350054994843    5.07990204440892
H          -0.05359487815906   -8.89406101957165    9.09518702044725
H          -8.47481997172186   -9.71076452820519    8.14909604923584
H          -4.33075428350714   -7.76557087083577   10.78609942612358
