85
 SCF done       -170.081218977710          0.000359458148
C         -10.32095428857918  -18.06076949663721    6.31662279544840
C         -10.67720325919885  -17.74878668806632    5.06378219264743
C         -11.82721170627421  -18.21423112369889    4.33913860737152
C         -11.92845540555794  -17.72770626313716    3.08482986780284
C         -10.87609362450694  -16.84087296364838    2.70834892940378
S          -9.74414543137336  -16.65196024616636    4.03153699972865
C         -10.70753532398028  -16.19708863853620    1.51006233045146
C         -11.55163817661624  -16.27096881158431    0.36936147626877
C         -11.11848608108010  -15.51964501691907   -0.67094533926783
C          -9.90899064390844  -14.80973344381647   -0.41374141147928
S          -9.33264422241817  -15.12807118568823    1.20396900507312
C          -9.24089086824126  -13.98083101341908   -1.26270971668604
C          -8.03635780077194  -13.34197238565482   -0.84088605474699
N          -7.63213276617902  -13.61818843686569    0.40824623467459
C          -6.52635660191422  -13.04356626659568    0.83626346466893
C          -5.79732623133686  -12.17705866034454    0.04365435585421
C          -6.28305744934981  -11.93846706060570   -1.25566105520342
N          -7.39781347099502  -12.52913189972811   -1.68063816418553
C          -5.64131575002786  -11.07199626218654   -2.21712679014489
C          -4.54869160796051  -10.32080530167643   -1.98135474580394
C          -3.93230370265095   -9.45711708496362   -2.92777631381906
S          -4.73798141839822   -9.05051878903276   -4.40984275561941
C          -3.51967324739830   -7.96728706268971   -4.87418474206675
C          -2.49972290695491   -7.90545694932551   -3.94944714620770
C          -2.71087444811853   -8.78158237829851   -2.83389866767857
C          -1.70576407870300   -8.86190833029907   -1.83176599327281
C          -0.62796715780369   -8.01102402744595   -1.90754758593924
C          -0.44432433088277   -7.12523665991576   -2.97968311140758
C          -1.34476414409290   -7.07683988199397   -4.01143411959275
O          -1.20786980485681   -6.27837915908070   -5.09134428674539
C          -1.77485545151025   -9.81494060795102   -0.72001160387527
C          -1.66598531996344  -11.19292029001539   -0.81495079606548
C          -1.39974237792598  -12.12598840281521   -1.87315334302860
O          -1.56234714725217  -13.32049246760822   -1.76235886011611
C          -0.77329779189712  -11.60065047309003   -3.19659485107928
F           0.16513571708146  -10.66272606398089   -2.98592077695123
F          -0.17629292384021  -12.59724729558763   -3.84798325395920
F          -1.67721256202841  -11.07501929806383   -4.03475671438084
S          -1.89607205208962  -11.96680528872012    0.74129953353420
C          -2.06265285612342  -10.46024959005600    1.49720503004295
C          -1.98373419257510   -9.38760583492815    0.62804941215059
C          -2.12866274366125   -8.00687314335480    0.98780528716951
C          -2.28031442391700   -7.53777824870006    2.24833043882679
C          -2.40737617447373   -6.15057421835706    2.50693609856994
C          -2.57850737261086   -5.60146185535758    3.74430062863458
C          -2.70614748263537   -4.18967452772498    4.06012395855655
C          -2.56225852257252   -3.13567442791232    3.19395199271940
C          -2.24785158063964   -3.23638611761032    1.82290525268778
N          -1.98261542435247   -3.22983029625500    0.70519110207806
C          -2.68845996566294   -1.78123937034982    3.56787262157152
N          -2.78115122128731   -0.66223836536587    3.80686658132166
C          -2.98371747198691   -4.07865681522014    5.48695337990582
C          -2.98078757761282   -5.37583788909006    6.05702627936672
C          -2.71285241148664   -6.37447064419281    5.00536040748233
O          -2.63028751949254   -7.57532857424224    5.15831998416531
C          -3.20807415304860   -5.59998534101417    7.39318969085081
C          -3.45488328876701   -4.49090140197812    8.20853310376677
C          -3.46005624664957   -3.19838187427420    7.63062535067968
C          -3.22716054825456   -2.97180454351336    6.28010901119799
S          -3.79069447503559   -1.97073518915735    8.81462312147170
C          -3.91572767149461   -3.19276738153930   10.05254063458434
C          -3.71981160958750   -4.45587039331954    9.60458846718719
Br         -4.29297273132536   -2.68577699291039   11.81792264760021
H         -10.91870233859419  -18.73203116186698    6.90783834115151
H          -9.43487969509185  -17.65509959417649    6.76916341088586
H         -12.52447825802971  -18.89422571828014    4.79597228452376
H         -12.72374139015136  -17.96992483670924    2.40224360073265
H         -12.44502000253361  -16.87055718438963    0.35079101423614
H         -11.61543941987094  -15.44024452831812   -1.62206896804303
H          -9.60026463230210  -13.78795957809061   -2.25996571568314
H          -6.22267528455717  -13.28989059028248    1.84597487309716
H          -4.89640242048783  -11.71753257040811    0.41341388555169
H          -6.10994184639738  -11.06009208047414   -3.19150023299143
H          -4.09771786729693  -10.33013945873911   -1.00036989082706
H          -3.59334946386924   -7.41329925018957   -5.78788501186870
H           0.13454677930148   -8.06036040651770   -1.14473163673880
H           0.43589800460153   -6.49883446272149   -2.99679190725125
H          -0.39227283856490   -5.76536865806032   -5.02451867732440
H          -2.22555480495884  -10.41386817588133    2.55649306296474
H          -2.10600810258323   -7.30466247581319    0.16337274257474
H          -2.30132720721426   -8.20694489921084    3.09390130887508
H          -2.36804465618959   -5.49784504090405    1.64445862077695
H          -3.19761061301591   -6.60057082766526    7.79621527915019
H          -3.24387686834921   -1.96829251695295    5.88939416848512
H          -3.76074354902737   -5.32783127223803   10.23146137155635
