106
 SCF done       -192.965680162238          0.000450412499
C          -3.51674079324137   -3.43049168524309   18.46925462832739
C          -2.73644093866222   -4.48546723165185   18.19410676663212
C          -1.49150636980554   -4.84187669014958   18.81019610118947
C          -0.92527753090843   -5.96591753204649   18.31546111825557
C          -1.66708642147665   -6.58901897328991   17.27553002600511
S          -3.13227471932880   -5.68254232533356   16.95065833860220
C          -1.33591492572896   -7.72896614155086   16.57938609564152
C          -0.18182844643062   -8.53436613078769   16.72622682233154
C          -0.13650068980751   -9.58923292683459   15.86908716779018
C          -1.24614524689856   -9.69280467288890   14.99132357186520
S          -2.36474856103405   -8.38077182490647   15.31778176976834
C          -1.37973905256110  -10.65870653762173   14.01951949142970
C          -2.41294274202848  -10.86450509531706   13.09344502088128
C          -3.60825493272980  -10.20161041129501   13.02347877153460
C          -4.57977432939748  -10.44905501596164   12.03840125959316
O          -4.38251288487659  -11.33345498844524   11.02302181122112
C          -5.48627963598109  -11.33078085979661   10.22943725431421
C          -6.41497958325183  -10.42651719094024   10.74681939137923
C          -5.84317739190602   -9.86543158465653   11.89697402310454
O          -6.38625448664695   -8.94428883678926   12.71863981127142
O          -7.64731038315189  -10.09003000093444   10.27449907516268
C          -5.57219924392064  -12.14939880923142    9.08163293130385
C          -4.57831633313686  -12.95591791888016    8.61910784392531
C          -4.71667135342284  -13.75433559291877    7.46223940053562
C          -3.69333501741661  -14.42206213205759    6.86481340507473
C          -3.81107986341815  -15.18054302287630    5.66938346650750
C          -4.96004408009679  -15.73642311723470    5.20376849326985
C          -5.06854562548551  -16.37837020917577    3.94704261290935
O          -6.21074211195562  -17.04530351432597    3.62312279923845
C          -6.09960634769863  -17.49787935440401    2.34449565980816
C          -4.86336707542252  -17.10931203698263    1.83789281984405
C          -4.19766031073686  -16.41197803316729    2.85973879142119
O          -2.95950148643042  -15.87374246285929    2.78856621174623
O          -4.32622348739788  -17.33116307067647    0.60771494173255
C          -7.13438275861412  -18.23086114607912    1.71654712476339
C          -8.25574559626048  -18.66504391710412    2.34628754308388
C          -9.36396809720673  -19.31782066044399    1.74103463764818
C          -9.50280868920571  -19.66578264545562    0.43710329863272
C         -10.70714045131500  -20.19796533035834   -0.12196649920309
S         -10.57589225549464  -21.43114213814311   -1.34557319487318
C         -12.25665675268085  -21.70581396184479   -1.36816984031541
C         -12.92180129035137  -20.87420953673714   -0.49689723947652
C         -12.04681712963491  -19.96820851837109    0.18927140307602
C         -12.61555424072958  -18.96114381662744    1.03583265346643
C         -13.96979518725479  -19.02983794279583    1.29740641924555
C         -14.81467642042129  -19.96638375087571    0.68649198596024
C         -14.32618693779001  -20.86245752454570   -0.23408960305642
O         -15.05371599927397  -21.75831704367176   -0.93923457525167
C         -16.44710152070838  -21.80253239105909   -0.73707072266258
C         -11.80881782166251  -17.87352667411192    1.50683101933086
C         -11.92746773043404  -17.22656727051829    2.69471484977162
C         -10.92623795630221  -16.31591163332139    3.09095060698604
C         -10.76659216078134  -15.80701968596897    4.35271402538123
C          -9.66858099512457  -14.98778869584330    4.81320251181046
C          -8.58693426488415  -14.55552614336390    4.07943414679429
C          -7.61183737668315  -13.67347677121263    4.58087430522191
N          -6.81062876875786  -12.93149636781756    4.93956709889346
C          -8.29360158144675  -14.89938745333196    2.74643108277868
N          -7.95799879111897  -15.13622842861209    1.67239437829488
C          -9.89078485199368  -14.70620410207367    6.22782850245856
C         -11.09897896495221  -15.32361621176679    6.63319808205916
C         -11.69707214947721  -16.02861522058873    5.47884409154045
O         -12.74039938524215  -16.65055797408977    5.48324613698465
C         -11.57417685149543  -15.25584632824466    7.91942250337612
C         -10.81681598720242  -14.54961937213931    8.86034527486264
C          -9.60510172600455  -13.94768069762794    8.45105556502109
C          -9.12813239493007  -14.01042653137607    7.14828589486472
S          -8.82002365408063  -13.13991849218482    9.77689848506816
C         -10.11894512017039  -13.60404386138049   10.84221740722630
C         -11.08676154883203  -14.33419679550770   10.24060809120252
Br        -10.05968128452824  -13.07352821383404   12.64146423624497
H          -3.23761964367467   -2.72572116400042   19.23247340192100
H          -4.43654141604847   -3.25510229466699   17.94251583591425
H          -1.07574254751505   -4.23760665276467   19.59699058902258
H           0.00725231324023   -6.37647360160342   18.66051777475052
H           0.58048543888075   -8.31020712703551   17.45058908491396
H           0.66704591766122  -10.30444387788676   15.83361969763186
H          -0.54544315747948  -11.34748960112931   13.95637928505527
H          -2.24387685331900  -11.64235059229501   12.36040470427242
H          -3.88485695551377   -9.44678104109924   13.74216786499851
H          -7.26626318455946   -8.72624109562343   12.38478084437159
H          -7.81309271207647  -10.55927030042186    9.44998887584177
H          -6.50451473532818  -12.10220867578472    8.53280290112194
H          -3.63476429713289  -12.97044353429715    9.14646186083668
H          -5.68903226802238  -13.76911371843592    6.99038096484449
H          -2.69753803062971  -14.31455115711100    7.27642886048663
H          -2.90949046806068  -15.32538113693862    5.09177581919184
H          -5.86204183683463  -15.72264886668182    5.79879173282989
H          -2.63612508787775  -16.00173801482894    1.88666227391855
H          -4.99488247007076  -17.71795077960638    0.03262749128101
H          -6.99020792713544  -18.43474015823984    0.66440434340068
H          -8.34134622195003  -18.46100650948957    3.40471422183296
H         -10.19818855497914  -19.51712524283062    2.40067662465762
H          -8.65676840986108  -19.61458383110627   -0.23472171993547
H         -12.67700105782152  -22.46422818195405   -1.99582011369846
H         -14.41334341027751  -18.28811700144899    1.94374497594471
H         -15.86565396644363  -19.93543269727768    0.92509917211924
H         -16.81803790330139  -22.57529217786140   -1.40811149136552
H         -16.91718859604253  -20.84672388574426   -0.98795838970009
H         -16.69243867620491  -22.06948779191198    0.29531084576471
H         -10.98406372572543  -17.59481444413759    0.86260156775498
H         -12.70058073232939  -17.48564193988592    3.40160025406958
H         -10.18135279342488  -16.07365305903314    2.34356855385203
H         -12.49995737216819  -15.73708741639995    8.19340447034065
H          -8.20025056031600  -13.53110191773205    6.88668326401373
H         -11.95804100196281  -14.70710133228960   10.74732417600961
