132
 SCF done       -214.242540730081          0.000292312867
C           6.44034093784802  -20.10892458355800   -1.91017594419280
C           5.34209182103892  -19.40086704284545   -2.20550971869958
C           4.20072865481190  -19.82829754054386   -2.96410368359117
C           3.23769582970096  -18.89139345283146   -3.10020882431770
C           3.52945780047555  -17.65058676761637   -2.46540875610982
S           5.09686955429318  -17.72639820316405   -1.68184257788012
C           2.74359814962613  -16.52634571844240   -2.42805990508878
C           1.46231383426363  -16.33858756171889   -3.00920871937045
C           0.93012200708434  -15.11278413391902   -2.78174323523293
C           1.74994824723952  -14.24684897965994   -2.00299554974132
S           3.24544437036044  -15.06848513710723   -1.58666002738382
C           1.41545358516982  -12.98133454919853   -1.61361983929702
C           2.17154963555679  -12.09294636902665   -0.81880407572525
C           1.74668785991959  -10.86867522261150   -0.35735001541542
C           2.68692841180171  -10.20526693339160    0.45911058217211
C           3.87284144009422  -10.96680638982178    0.62537144318341
S           3.79552819285820  -12.46404093564273   -0.26693746854006
C           4.94977195825130  -10.54320318229075    1.38632424897159
C           6.19118129585278  -11.32513815548570    1.46527445136777
C           7.41961511640070  -10.72983046798182    1.19412641854503
C           8.58372786650521  -11.47341720264985    1.23508206263847
C           8.55626491501812  -12.82612443143648    1.54843232318301
C           7.32805999874881  -13.41633247841989    1.82389585898010
C           6.16100364093350  -12.68046957165832    1.78261599851858
C           9.81169438244835  -13.64330401662425    1.56916966409508
C           4.79723082683958   -9.32300614177156    2.06612021048833
C           3.59937746524385   -8.57605182642362    1.92617697827554
C           2.55021462629208   -8.96510173451948    1.11104281561753
C           1.36238120636196   -8.12268580908877    0.91803031581372
C           0.94530744049899   -7.78065304442464   -0.36647743102781
C          -0.15354647944894   -6.96646551927895   -0.55264816774584
C          -0.87153945161434   -6.47450692825691    0.53221841984381
C          -0.45640145667536   -6.82200935970216    1.81058889804700
C           0.64662051285420   -7.63184713313702    2.00486219111415
C          -2.05145103730116   -5.57740575456794    0.31440002280484
S           3.64936320033569   -7.11418239628672    2.88474826119101
C           5.23890462730773   -7.53491396410605    3.48358758231159
C           5.70577009503495   -8.70497266162631    2.96154838730026
C           5.86363471981677   -6.69664000002217    4.45126001622019
O           7.14310253930355   -6.91754389489379    4.84840555784109
C           7.38508889907451   -5.98501736394633    5.80150688983874
N           6.35460107845437   -5.20398842133547    6.02301108329928
C           5.39008392126114   -5.62781619955045    5.18328838443923
C           8.65660116409905   -5.93248540655571    6.44231112419854
C           8.88046585091490   -5.14023059623333    7.51111717221145
C          10.12233393220985   -5.02353430464645    8.20088728165441
C          11.37300999139982   -5.42377295823101    7.81761013934118
C          12.38280237592943   -5.13617665268161    8.76606788897888
C          11.86165396259884   -4.48135567168499    9.91341470816593
S          10.13913602905216   -4.25227509401923    9.77696619436726
C          12.64221357509276   -4.11741215604591   10.99780012096319
C          12.08782137132850   -3.51766520284413   12.21823566755192
C          12.40639272949237   -4.05180188456018   13.46616284001529
C          11.91956588955034   -3.47575492965352   14.62080345994156
C          11.09792607218346   -2.35462361835910   14.56787741063600
C          10.76636114472839   -1.83664406394858   13.32352596408473
C          11.25172180381118   -2.40799727820660   12.16175377021848
C          10.58763379497006   -1.73778353670778   15.83375682174669
C          14.02145438335471   -4.37286594081559   10.89036586756060
C          14.54812750193641   -4.99934853183886    9.73118636403831
C          13.76018845174304   -5.40878919066961    8.67016260889329
C          14.33043739887604   -6.10107658296203    7.50596121645621
C          13.82536172761431   -7.32947740055133    7.08947488263382
C          14.37484518656341   -7.98033654159942    6.00200600252309
C          15.43662694416022   -7.42503735463122    5.29797133022750
C          15.93784683841764   -6.19877625215097    5.71668277415806
C          15.39736624669414   -5.54510420094459    6.80669281123962
C          16.04389897870947   -8.14427920052981    4.13251750717271
S          16.27418959369602   -5.21657127098725    9.86961630534156
C          16.28397891507183   -4.45645693305132   11.46006434885489
C          15.02477618057912   -4.06049810923280   11.83199175157118
C          17.50940309777860   -4.35003582040283   12.15549257643829
C          17.69376087499865   -3.93868092230795   13.44542053396408
C          18.94936517832846   -3.86633105700707   14.11322974480498
C          18.88249200197062   -3.46578240232208   15.40734326220345
C          17.56570602582880   -3.18900037849972   15.85788633517179
S          16.41938783714931   -3.45555349964021   14.55665692286437
C          17.16061932435530   -2.77243117206696   17.10050237289552
C          17.97533023027204   -2.51284603828119   18.23872968695693
C          17.29338429389315   -2.11345618568831   19.33381857121427
C          15.87241562216973   -2.02330700090058   19.14952777190227
S          15.47299010335620   -2.48493688119260   17.48659187942826
C          14.95169300496777   -1.65702306385495   20.05087254677735
H           6.54677644427428  -21.12423680179086   -2.24938856751936
H           7.24353898235700  -19.69158543078603   -1.33132946424605
H           4.15584013870949  -20.82224621341001   -3.37299056453892
H           2.31699314560890  -19.04153385909466   -3.63585925485930
H           0.97578197665341  -17.11496915533057   -3.57212960439195
H          -0.03173209607702  -14.78911531951655   -3.13957121979854
H           0.44597989878929  -12.61398902614807   -1.92701783956459
H           0.77044129931665  -10.47368422534565   -0.57562281875930
H           7.45702411927730   -9.68369060186860    0.92583144116195
H           9.52807975209664  -10.99543284192627    1.01468285723684
H           7.28666097009067  -14.46719097612343    2.07190626504990
H           5.21918389125816  -13.15471655015370    2.01458633087598
H          10.69239038758202  -13.00678403609752    1.60297294606937
H           9.86871475580565  -14.25879726338558    0.67115814455029
H           9.82385730854284  -14.30932807629964    2.42965913915846
H           1.50408508862559   -8.13879816590015   -1.21924426926230
H          -0.45986053266991   -6.70260230071014   -1.55531486596451
H          -1.00262589088577   -6.45421260022460    2.66747051162387
H           0.94548329435088   -7.90166832792629    3.00678741609640
H          -2.71240012267771   -5.98848288472431   -0.44693929140339
H          -1.71759797851120   -4.59790440606489   -0.02894592182641
H          -2.61474920222415   -5.44363039600669    1.23449132777533
H           6.65685665112874   -9.12539463516116    3.23422252844121
H           4.42529638146800   -5.16551597859997    5.14393548319117
H           9.41920166830900   -6.57920463920155    6.03534428814475
H           8.05149963008381   -4.56187569605999    7.89447015445212
H          11.57723783767934   -5.88241652257543    6.86727390472224
H          13.02695548620475   -4.93399880534409   13.52563264218888
H          12.18401831156838   -3.89651503719729   15.58033713045602
H          10.12557070201404   -0.96866165797715   13.25968435716798
H          11.00090428362534   -1.97520794028003   11.20460207578020
H          11.41540613503124   -1.51872382027782   16.50677991651403
H           9.91669066344952   -2.42761003115411   16.34540873202085
H          10.04675681406225   -0.81708902767585   15.63032521642344
H          13.01200078418295   -7.78370914515935    7.63722186685582
H          13.97493651405506   -8.93668898171820    5.69505856187856
H          16.76151948492410   -5.74905687222127    5.18067067196183
H          15.79129101071639   -4.58611310918818    7.10934987028082
H          15.30250423331879   -8.75581437241148    3.62332262566968
H          16.84286632802488   -8.80163549206227    4.47764169139204
H          16.47155924888736   -7.44074393664675    3.42195213487609
H          14.81431852662681   -3.52806431964354   12.73963368082805
H          18.39468782057579   -4.65557506882312   11.61293869037988
H          19.86097658978785   -4.12155896353063   13.60161560003187
H          19.73526972003503   -3.36416998194379   16.05450774144283
H          19.04356188111795   -2.63374209139651   18.19913137987417
H          17.73837310788170   -1.87305414154072   20.28315598021626
H          15.24031613878806   -1.38553396547644   21.05089812594914
H          13.90531054627973   -1.62234384074153   19.80946058538302
