91
 SCF done       -155.185053222836          0.000387222808
C           1.88049218896354    1.56188142138458   -3.21677936756457
C           0.90472690272353    1.26920340473391   -2.34745937957394
C           0.44702042307739    2.05984545676756   -1.23981340036799
C          -0.55828716900476    1.50121563405723   -0.53201792578300
C          -0.98107750950859    0.22914858404837   -1.01367799520757
S          -0.03978544024064   -0.22742160487484   -2.41832645389194
C          -1.96820009305852   -0.57731885517215   -0.50328125353644
C          -2.80140897726199   -0.33352431158518    0.61882639786385
C          -3.68461654349024   -1.33247267480459    0.87420902991519
C          -3.60612384566666   -2.42728033384417   -0.02801411287781
S          -2.35767708331484   -2.13129036778510   -1.22017273664842
C          -4.36962793505479   -3.56460495535379   -0.01114732006390
C          -4.22550583658436   -4.60029170018128   -0.94925747319975
O          -3.28304582832008   -4.49267411614750   -1.92976390266920
C          -4.88605416027407   -5.80775919078776   -1.11864434646671
C          -5.93716874906280   -6.66941867979602   -0.58941269391221
O          -6.68045191099058   -6.54121462208472    0.35096571772266
N          -5.92268187311395   -7.77093764614472   -1.45044531472973
C          -4.98103920888394   -7.71424226587550   -2.47446024143441
O          -4.81789936147036   -8.56147070449687   -3.31717611300016
C          -4.30779762736936   -6.43569912708315   -2.25042285331965
C          -3.31933957145897   -5.59637137677659   -2.72709179506470
C          -2.43248725774330   -5.72087948527114   -3.82557858028830
C          -1.52165920365847   -4.77671065125385   -4.15846561219654
C          -0.64770693414474   -4.90659245369759   -5.27704759966261
C           0.23484702218769   -3.97405672233565   -5.68462267989372
C           0.41288289740567   -2.65052385727490   -5.00835439591225
C           0.99736373969764   -4.19992054718137   -6.96593675653483
N           0.24451525314924   -3.67413106085167   -8.09083304497864
C          -0.84689621358489   -4.35090794094684   -8.55228318664532
C          -1.84595703220567   -3.76060861616949   -9.24026564655710
C          -2.98429975553762   -4.35817931851906   -9.86047929376510
S          -4.09284497151138   -3.25048986592724  -10.61591925922127
C          -3.41618948231723   -5.66469367044971  -10.02160477040323
C          -2.67797780457337   -6.83771424077825   -9.45540282022258
C          -2.88395617568465   -6.96571241954149   -7.93764598465393
N          -1.77015733590994   -7.70217850742361   -7.34928991614062
C          -4.62241604285457   -5.76930709523581  -10.75089600568826
C          -5.25678613532755   -7.07634596349480  -11.10522574823080
C          -6.15342888685201   -7.61162809597248   -9.98264997555732
N          -6.73565642271196   -8.87745148179885  -10.39379357741221
C          -5.13593560070662   -4.54358060846962  -11.15370576099247
C          -6.32977879757375   -4.23218891301533  -11.86095777908250
S          -7.71079060744600   -5.27769977657767  -11.81506262282546
C          -8.67041935407670   -4.22825271359692  -12.76300654353254
C          -7.98500439019285   -3.09344050177123  -13.12206952881606
C          -6.63696294471981   -3.08321244204677  -12.61316776053850
C          -5.80615660812959   -2.01083624949452  -12.95115400169222
C          -6.28063026388223   -0.96578906891575  -13.71856676161107
C          -5.39952482245137    0.14577839601191  -14.06001840336972
O          -5.72630071390949    1.11685226727293  -14.72586901470943
O          -4.15217196639790    0.04295547734395  -13.57982880445941
C          -7.63961419390431   -0.96027162370093  -14.19258986729490
O          -8.12259627998330    0.05446779491444  -14.92953605970169
C          -8.45985249168863   -2.01635177244562  -13.89982615111219
H           2.42944376951725    2.48329759653738   -3.13620561544042
H           2.14638457911317    0.89345546989152   -4.01491549082136
H           0.89611660249098    3.01327615744584   -1.02544372026732
H          -1.02012200572315    1.95381489586439    0.32736503704409
H          -2.72383762478023    0.56783418126807    1.19999101199146
H          -4.39689260497217   -1.32977467811635    1.68008548561592
H          -5.12617874129661   -3.69465089639500    0.74643303871956
H          -6.55406855832708   -8.55071887691443   -1.33672446702718
H          -2.53576869568667   -6.63009712308086   -4.39895033699959
H          -1.46138061089617   -3.88146054103433   -3.55585538294985
H          -0.72392145647213   -5.83041678488354   -5.83550811532033
H           0.70832367157842   -2.78651738365995   -3.96915345567134
H          -0.51573535993579   -2.08055412804280   -5.00527732070829
H           1.17817145676859   -2.05888434984020   -5.50484424146260
H           1.14972475518851   -5.26773564195590   -7.13831599722580
H           1.96985392759109   -3.70163146381216   -6.94238374682050
H           0.17285869556174   -2.66542968388681   -8.12204974104942
H          -0.81356356201315   -5.40834467677871   -8.35621509739613
H          -1.79994052276010   -2.68383010940135   -9.36125822862596
H          -1.61112705790821   -6.72360375898330   -9.65697064404586
H          -3.00621343282085   -7.75955345834060   -9.93517461720587
H          -3.85979052299763   -7.43655387164166   -7.74310463572311
H          -2.90275561891833   -5.97335575410522   -7.47639069449631
H          -1.66971064336590   -8.59726737967336   -7.82007377348900
H          -1.97147836841719   -7.90797262770185   -6.37502212083912
H          -4.49158386373530   -7.82370789392571  -11.31872944819839
H          -5.85881064856834   -6.96316932839056  -12.00909644032856
H          -6.90324282722374   -6.84485970095845   -9.72480233760952
H          -5.55065871330825   -7.79847760760358   -9.09076136241172
H          -7.33293000073686   -8.73614461293022  -11.20249017839556
H          -7.31053472941928   -9.25903433791821   -9.65045981798360
H          -9.67641946495825   -4.50336843855392  -13.00549437618517
H          -4.77879310333209   -1.98833173893117  -12.62803841979587
H          -3.64140605294316    0.82085420559393  -13.85254691751633
H          -7.40800158969392    0.71447639866694  -15.05921602890250
H          -9.47198208903395   -2.02154229773925  -14.27015435193885
