91
 SCF done       -160.486503561811          0.000599780425
C          -0.08716748680582  -14.02043895154657   -4.49455733777534
C          -0.40636726278103  -13.69314832420999   -3.23584075331279
C          -1.15415565434817  -14.46741240752424   -2.28549619525835
C          -1.32312297808806  -13.86897840482967   -1.08703519460967
C          -0.72773365146270  -12.57809914644325   -0.98452255531333
S           0.06467210996203  -12.15877228822304   -2.48812686332005
C          -0.73440319430096  -11.73767533337048    0.10096311081880
C          -1.33007313886766  -11.96343022177920    1.36901656187675
C          -1.15467760972855  -10.94501244066165    2.24837229091220
C          -0.40796452729311   -9.85044989944475    1.73385299932975
S           0.05347755934173  -10.16783958405732    0.07423083904116
C          -0.07015353562882   -8.70658674439482    2.40551777638951
C           0.68949964343287   -7.66618175060691    1.84402951464036
O           1.12708547362550   -7.75763120909083    0.55497461748472
C           1.13598258031225   -6.46280678779502    2.36633492446547
C           1.14148381386318   -5.61598653434270    3.55412037761749
O           0.64923830011248   -5.76465570857842    4.64455623199521
N           1.88729190524872   -4.50289416354451    3.15865017215561
C           2.36402009503280   -4.53722975007980    1.84995392847035
O           3.02513077246616   -3.67444308446551    1.33033946153784
C           1.86922820295748   -5.81655015338814    1.33892925563518
C           1.84314778636281   -6.64360856821495    0.23458503546859
C           2.39863012402255   -6.48789214472862   -1.06512033209709
C           2.23444800111069   -7.40992057726102   -2.03691994192944
C           2.79701505271006   -7.28332519408526   -3.36044496542906
C           3.98157064135109   -6.61677324805198   -3.52029427282384
S           4.53003568446066   -6.48855951625040   -5.13532881162714
C           3.10381880921081   -7.31837153892140   -5.67585702815327
C           2.25969686142860   -7.72670383320684   -4.63315323538262
C           1.05144521603570   -8.38949171193076   -4.97118234989460
C           0.20451444844581   -8.94562172544414   -3.85587042885547
C          -0.73834704510453   -7.90292223774863   -3.25654790229995
C           0.67223245662004   -8.53650009582330   -6.30197736577353
C          -0.71114990093724   -9.02082319469572   -6.65726569076060
C          -1.54423439545950   -7.88519600748875   -7.25699899739845
C           1.55654852833757   -8.16055918011785   -7.34761468737893
C           1.44883162663295   -8.25059847995190   -8.79158163944077
C           2.55019997647784   -7.73135889890518   -9.41387270226386
S           3.75915270790425   -7.12915360109128   -8.36263790920032
C           2.77624610680664   -7.56108901219397   -6.99869374091995
C           0.38185032613861   -8.81491079562560   -9.58438556748379
C           0.07633523068804   -8.41286258169668  -10.83335965232784
C          -0.97160263995718   -8.97726614704473  -11.61282450510888
S          -2.02669139384115  -10.23553135862140  -11.02759607661980
C          -2.94473376953751  -10.26720381127781  -12.51024199344482
C          -2.43731711386159   -9.34398673792965  -13.41607328624838
C          -1.32388216375947   -8.61618625548106  -12.90091724583569
C          -0.64002113488791   -7.62982843603468  -13.62875676692849
N          -0.06924038862472   -6.82337928166181  -14.21224945459564
C          -2.92097598235127   -9.11359135005021  -14.70991206081451
N          -3.29390433449919   -8.90294208348965  -15.77628538547663
C          -4.03095696858834  -11.17656633905482  -12.60984607465628
C          -4.87956733637802  -11.23502162077390  -13.66237404734621
N          -5.92530191510485  -12.08341933135427  -13.83004830132743
C          -6.31389767916517  -13.16663618570879  -13.05481819269303
C          -5.51490061492759  -13.95677820975781  -12.28057171011668
S          -6.39497475262631  -15.19903092566445  -11.48654931711171
C          -7.85976020115373  -14.68867210512657  -12.23237912999167
C          -7.68405850943159  -13.60630246909369  -13.03771310258844
N          -8.70428402948232  -12.93118635155191  -13.70244638037311
H          -0.39243387621237  -14.96408179686837   -4.91105279451879
H           0.48201075096845  -13.36006782561918   -5.12307593218351
H          -1.53073866786524  -15.44030505296478   -2.54712396622148
H          -1.85633684660774  -14.30524336320570   -0.26120807366134
H          -1.86526821525155  -12.86893842016031    1.59206223072751
H          -1.52907404459023  -10.93303371679221    3.25651641659316
H          -0.38587332762223   -8.57383538464483    3.42852450667644
H           2.06862057810833   -3.72696408554008    3.77891870240528
H           2.93136536058375   -5.56289472672218   -1.22546736285106
H           1.65902428269060   -8.28674795233210   -1.78853998058229
H           4.59286025477811   -6.21244696026954   -2.73744160187001
H          -0.37608529954948   -9.79826270982417   -4.20534781569450
H           0.86133181683645   -9.34438936891873   -3.08581177921553
H          -1.27000072605812   -8.32530964859168   -2.40698629451095
H          -1.46628792772814   -7.57780852708489   -3.99605042296863
H          -0.18375424592302   -7.03101984626355   -2.91829235807646
H          -1.23834860963004   -9.38021268310260   -5.77830254617377
H          -0.65404439961749   -9.86022354723498   -7.34974378758961
H          -2.54076933890224   -8.24396761451126   -7.50549809766915
H          -1.08757370177889   -7.48591382796336   -8.15839258693767
H          -1.63727318858525   -7.07455005811447   -6.53766286275792
H           2.73567793526912   -7.70930882304545  -10.46991475237931
H          -0.19604771021355   -9.62312419231566   -9.16367316957789
H           0.60818727153783   -7.59694626784221  -11.30451160980546
H          -4.18155481225086  -11.81499473631906  -11.75350220135566
H          -4.76058456164986  -10.53834655425240  -14.47988259753945
H          -6.57900308526014  -11.82862333315421  -14.55537829403759
H          -4.45489658789741  -13.90660221985345  -12.14688459164203
H          -8.77348720962984  -15.20380345007984  -12.01532086961569
H          -9.58903531067167  -13.41612724811613  -13.65758276555609
H          -8.48911528942470  -12.65440202710687  -14.65087068653378
