71
 SCF done       -135.663060999619          0.000873696866
C          -1.92531639754035  -21.25325785268116   -3.70256650508767
C          -0.58811944358768  -21.27191075603272   -3.82271485582285
C           0.26727512087862  -22.41010782812435   -3.97255685842138
C           1.58537584369623  -22.10690381968290   -4.06701523468756
C           1.86840250364941  -20.72013261717027   -3.99943965711599
S           0.39579095149016  -19.80034389238361   -3.81123932502902
C           3.11129631983209  -20.11134180480676   -4.06488341332903
C           4.37559428814860  -20.70729196338061   -4.21691965309128
C           5.40800048193670  -19.80829228059517   -4.23785541346168
C           5.01492459398285  -18.46385334098287   -4.11058621875598
S           3.27656183738337  -18.37389619479944   -3.94921829270104
C           5.89117630391770  -17.38876715918609   -4.03582070249385
C           5.62847737719584  -16.04148187918481   -3.89655789667322
S           6.96548081262797  -14.97637786285257   -3.43996701026219
C           5.94894924131308  -13.56555887630507   -3.18899468478310
C           4.64285041382868  -13.88723385228816   -3.61927753380769
C           4.46778835636441  -15.24301811092132   -3.98299367354594
N           3.18471889765595  -15.35688126366154   -4.39107828550565
N           2.54022094593600  -14.18444597030077   -4.32064708493493
C           3.38888057028379  -13.28929414230984   -3.86961814438925
C           6.47177666474357  -12.40152037409487   -2.65989601724925
C           5.78738958097844  -11.33472060475026   -2.08955360274746
C           4.52451371557450  -11.26606908655913   -1.49865921610098
C           3.72063400616394  -12.35943886349826   -1.04929085378349
C           2.39812101236251  -12.18408435012634   -0.48566319147037
N           1.61054720645058  -13.24682225925994   -0.39235342816599
C           2.07250220448969  -14.46121458193570   -0.64513476563036
C           3.46280123850647  -14.64147114823672   -0.85245539474825
N           4.22241053930849  -13.58814968104322   -1.09578038621956
C           4.03620281098725  -15.92968797223312   -0.89807250587282
N           4.46967001993874  -16.98899233116750   -0.98293885454744
C           1.18392066887654  -15.55642668363734   -0.67066481049430
N           0.49912466133611  -16.47673093999491   -0.68355014015093
C           1.89337665145044  -10.89276714023060   -0.12552492821825
C           2.72213120523043   -9.80588593630295   -0.53912275294362
C           3.98886313030758   -9.97710387539724   -1.18821593947759
N           4.56094900449185   -8.81934639014283   -1.47917519237561
S           3.60469748903422   -7.60719938927489   -0.98635257088985
N           2.40831665337440   -8.52997662694925   -0.37970779314544
C           0.65259263639289  -10.59844349702740    0.44641123533469
S           0.05743839012443   -8.96503935634356    0.32555397136712
C          -1.51278188023207   -9.40708390593551    0.96054192057872
C          -1.56836201039976  -10.71092516688039    1.33667728637826
C          -0.31098452303489  -11.41753892594305    1.12459600654061
C          -0.08717211134529  -12.65242210116717    1.64748528837303
S          -1.24905575322712  -13.60964458610504    2.46292866026893
C          -2.67122569327773  -12.60358926867024    2.41686423321336
C          -2.70238898473418  -11.36080496039225    1.92185510565311
C          -2.58280651557192   -8.37173614103779    1.02562571865165
O          -3.47370286133637   -8.50073350043718    2.14441941661909
C          -3.14619589987375   -7.19704771009278    2.63142677787054
C          -2.15330808702797   -6.97115353476022    1.48951459189702
H          -2.49008688705567  -22.16864159894071   -3.71066348214616
H          -2.46810948133417  -20.33305360383248   -3.58863243137195
H          -0.13902899592965  -23.40535249332221   -4.00162041723289
H           2.36826921696011  -22.83549122897316   -4.18164946067264
H           4.50084685733463  -21.77138795050260   -4.30204768407718
H           6.44351608390564  -20.08143196213979   -4.33967543769811
H           6.93990580316689  -17.65927370893881   -4.01332407353345
H           2.69033080611906  -16.17384153317484   -4.71123246090460
H           3.09014803878120  -12.26736315623044   -3.75104913397678
H           7.55040764749267  -12.30790501905616   -2.70443335481355
H           6.33202539641413  -10.39839331667131   -2.04171520723586
H           0.87294308442179  -13.13214930102880    1.59634892476887
H          -3.53111109924482  -13.08048747227905    2.85558431824461
H          -3.61505359239706  -10.78673403787075    1.97595538151114
H          -3.15333993756675   -8.37289298582691    0.08447221994201
H          -2.71639236263626   -7.23899011028205    3.63559310788244
H          -4.02117773083910   -6.54131174213468    2.63274259798527
H          -1.11188769820904   -6.90200540560628    1.79172962825083
H          -2.39590933835978   -6.16142101601866    0.80807954040579
