90
 SCF done       -156.617236653442          0.000718804526
C           0.52957531336883  -18.77749684815629   -8.60144962573235
C           1.74302245687338  -18.79333270466706   -8.03378434536546
C           2.86265023111113  -19.62350907165517   -8.37733411251151
C           3.96335981878428  -19.41853476297063   -7.62185077822858
C           3.81177485356814  -18.41611766850898   -6.62194873292939
S           2.19679113916294  -17.73658200178258   -6.68661301953495
C           4.75130793734162  -18.00219012952294   -5.71032017576305
C           6.07887271017386  -18.47477096936262   -5.55086873501244
C           6.76352971342834  -17.86873685689121   -4.54841364161186
C           6.03005517166520  -16.87397903192348   -3.84415567988960
S           4.41820787100993  -16.74682114119719   -4.53004320559806
C           6.51552516937366  -16.14569060679134   -2.79293645189781
C           5.85679642706851  -15.14901774554231   -2.04634545837468
C           4.60691473245275  -14.58051843506773   -2.20054717897877
C           4.31333104487295  -13.60739624839240   -1.24208481525211
S           2.88734528923505  -12.57561410962396   -1.27112187575921
C           1.66154454398796  -13.69734677711473   -2.00133891331092
C           5.32841020566668  -13.41954265272865   -0.31526784632867
S           6.69175619570417  -14.43408178617954   -0.68829512430319
C           5.36550217283325  -12.51664855999361    0.78542474054890
S           6.76017006004392  -11.52362074257456    1.05098074658112
C           6.02813944749223  -10.69018073073425    2.38303637183798
C           4.74208965094555  -11.19204484794142    2.62967486653214
C           4.38539546751458  -12.25464766873459    1.73909007245317
C           3.17584314241542  -12.97559815044552    1.95048117483349
C           2.86607182140103  -14.16125441506116    1.25754281017702
N           2.57974114268067  -15.16762817475833    0.78170326230763
C           2.31844122889897  -12.55420816526376    2.94118241582497
C           2.61954831699968  -11.45498354797700    3.75212077383490
C           3.81567004753429  -10.78275048968315    3.63293518431325
O           4.18533902498396   -9.74393134274860    4.42460439607571
C           3.30187708872059   -9.30820197623362    5.43241017536443
C           6.72584869511353   -9.66490939413814    3.06731319499672
C           7.98592683240244   -9.27761566242687    2.76834510857858
N           8.62762069712540   -8.28025986104224    3.44220571212610
C           9.90948103851762   -7.88916976105357    3.25889109169805
S          10.96711101221432   -8.75970857582715    2.19149485491758
C          12.28099254225679   -7.72838128815719    2.67504673974409
N          13.52131088402544   -7.95140619398674    2.09079091479254
O          14.45227298280282   -7.23730037330498    2.43045647633606
O          13.59086755048664   -8.85858316168659    1.27172780422349
C          11.91335576476773   -6.78565304721180    3.60118074990098
C          10.55091913477041   -6.84124077757213    3.93594478337239
C           9.94294607777935   -5.91529796193977    4.86159799341307
C           8.65881433203118   -5.51052983467304    4.86882704489976
C           8.09418955602012   -4.57909281016966    5.80156865996928
C           8.74558085937058   -3.97596554407952    6.92374380781577
C           7.85159307937969   -3.12886965605938    7.56035919063381
C           7.99501672529370   -2.30281874513932    8.69321752275122
C           6.91020713418187   -1.55865964765647    9.07843064366679
C           6.71904759593358   -0.63446402333086   10.15287279112537
C           5.42613015601522   -0.14456906442071   10.09823607289928
C           4.77171222091439   -0.75325959622588    8.98371769355187
C           5.65931278344362   -1.61614048592823    8.35215463877131
C           5.51406060261151   -2.44141642314576    7.22375924523824
C           6.60052770157466   -3.18850135297009    6.83549416307884
C           6.79258384917205   -4.10098608302825    5.75750528423356
C           4.86187023893631    0.81413119209911   11.01825858854435
C           3.62281979111871    1.29516564350643   10.97473709965340
H           0.29736585347299  -19.43859349543689   -9.41765498851879
H          -0.24452123780655  -18.11279970528544   -8.26453635400331
H           2.78904759028426  -20.33847282492040   -9.17755677803466
H           4.88953511510371  -19.95257649386087   -7.74187565960756
H           6.48409351175028  -19.24766992712614   -6.17883742219315
H           7.77987100199355  -18.09795514559027   -4.27995563395527
H           7.53019853721692  -16.36700404676300   -2.48716489678577
H           3.93992770206046  -14.84819348230078   -2.99670962480142
H           0.69990875529275  -13.20812131858616   -1.88130719843541
H           1.68249492934745  -14.63214157408005   -1.44750691041241
H           1.86975023027913  -13.85146573319214   -3.05561551648428
H           1.39665915036823  -13.09153664395683    3.10868393081982
H           1.89818664035537  -11.16737626789699    4.49919144026879
H           3.10909069206905  -10.09752398217284    6.16502396457476
H           2.35455706534889   -8.95902504917925    5.01159670967879
H           3.80470238162584   -8.47685731573934    5.92442378558716
H           6.19667622721410   -9.18283235775014    3.87451526156839
H           8.54872407409398   -9.73816673886333    1.96914473933878
H           8.12744942538424   -7.83232963835696    4.20248593143321
H          12.60892896655324   -6.06915595779295    3.99935344961301
H          10.63221556798950   -5.48447576235664    5.57405631041099
H           7.97471196579249   -5.84348870035232    4.09738251544236
H           9.76244177303466   -4.15159049222756    7.22372038174549
H           8.93331498714564   -2.26381996627051    9.22893031673785
H           7.46644547310686   -0.36937485758302   10.87859869181148
H           3.75614572594259   -0.57022408241004    8.68315731354681
H           4.57704677680739   -2.47796263179611    6.68521394952866
H           6.04729261100274   -4.36272642978189    5.02793295772312
H           5.53689996432777    1.14750074009128   11.79680630490181
H           2.91590596100784    0.99631176177434   10.22014897449071
H           3.27145330642226    2.01160896965946   11.69685890878056
