89
 SCF done       -184.762621692919          0.000598973573
C           1.66765358058864  -20.56051569688533   -5.44329823841319
C           0.35044659585675  -20.52183137717520   -5.20357655379040
C          -0.49890122699619  -21.60035038371945   -4.78368085985873
C          -1.79579510967597  -21.25917129054533   -4.62388628501167
C          -2.08157446584251  -19.89139700150659   -4.90209065141449
S          -0.62270579079349  -19.05091463537659   -5.37521625680443
C          -3.30281451428332  -19.26275655875948   -4.83391474906089
C          -4.55164321233346  -19.82921794224376   -4.47418888422764
C          -5.58512478566024  -18.94826783107447   -4.51411542673601
C          -5.21522804898245  -17.63598058540330   -4.90839511984638
S          -3.49539176813802  -17.56126612873661   -5.21831930904458
C          -6.05205097336251  -16.55795277557267   -5.05358248737684
C          -5.62322653779548  -15.28963121543948   -5.46478827108222
O          -4.30050523089723  -15.05429331234135   -5.71819282957194
C          -6.32384585417459  -14.11278586935532   -5.70398323798770
C          -7.65392823513512  -13.49692637384441   -5.69067684301231
O          -8.73337689112089  -13.95588662179947   -5.41936433270994
N          -7.41039108061410  -12.18008725894516   -6.08393105067060
C          -6.08415754022861  -11.88421715381856   -6.34836970347744
O          -5.66205879478714  -10.80062074531966   -6.67825261014989
C          -5.38141729658069  -13.14999550414720   -6.11939179404779
C          -4.13509361443560  -13.76488146404379   -6.12307937191498
C          -2.85880202131059  -13.26535325104592   -6.45881886426624
C          -2.75625414756247  -12.01667833465141   -6.99726556235501
C          -1.60993501711607  -11.29251191365171   -7.34779688442471
S          -1.87604071376593   -9.73920385566167   -8.09604689950070
C          -0.18380150458216   -9.32143146479622   -8.15853037694099
C           0.56340387443117  -10.37575690246586   -7.62348199001515
C          -0.23355875969218  -11.47735218384533   -7.19816512941309
N           0.62885984467987  -12.39906512893361   -6.71150344784256
N           1.89896171863260  -11.97237301154723   -6.79830543246915
C           1.89118244555870  -10.77861541665796   -7.33658435373658
C           0.22195059647687   -8.02324338240666   -8.54171188776971
C          -0.58699717081619   -7.15074315670871   -9.19715662053924
C          -1.74041445446886   -7.55790585168507   -9.95311268318554
C          -3.00289772577552   -6.93973846033602   -9.82040500302655
C          -4.15729001443592   -7.41250003470542  -10.54774347930989
N          -5.35185139240021   -6.83988728353879  -10.33069927557248
C          -5.46618361437293   -5.90578201074061   -9.41928350855389
C          -4.32223541580658   -5.44938577127273   -8.68860032750008
N          -3.13336495076857   -5.95252580659238   -8.92223486153973
C          -4.46662092822265   -4.41676550442473   -7.72967684322245
N          -4.62545601646129   -3.57476659089156   -6.96934120754898
C          -6.75701137136766   -5.36499339002587   -9.19619512755359
N          -7.81063983351376   -4.95676414544074   -9.00699133034280
C          -4.06492075945181   -8.42822235665196  -11.52449643236663
C          -2.78298652642406   -8.97518650172522  -11.72512809810109
C          -1.65416235437435   -8.59037915111939  -10.91326513473322
N          -0.55827948971866   -9.27997916831697  -11.23405146059672
S          -0.91226243612601  -10.29835080104545  -12.42198451562573
N          -2.46335663213716   -9.92712229018949  -12.60110660346196
C          -5.17039634829764   -8.81233835118885  -12.34013634771085
C          -6.48755407923975   -8.77481837812179  -12.01570558678992
C          -7.16042891602540   -8.72562592960069  -10.73435926641317
C          -6.73761500232243   -9.32571629508223   -9.57409674357358
C          -7.58722800812882   -9.51445319418143   -8.46740289109234
N          -8.29446028061227   -9.73294921383553   -7.58947890253490
C          -5.47159947443393   -9.92650038162956   -9.45186531426251
N          -4.44232493219724  -10.42964377031906   -9.36758361635353
C          -8.49845224979571   -8.20453536279037  -10.97318659684728
C          -8.73721969284827   -8.18745768736577  -12.37120830683726
C          -7.52888190521717   -8.66208065249388  -13.07705762538901
O          -7.38620742516073   -8.86174301963719  -14.26019042701315
C          -9.92348926402346   -7.74685527593644  -12.90581405098624
C         -10.90676727455842   -7.28839385988218  -12.02183174553149
C         -10.64636782618258   -7.28973516458533  -10.62967164757128
C          -9.45264249276374   -7.74753310629412  -10.08642528768894
S         -11.98615818629835   -6.65845470947407   -9.72665084501805
C         -12.87215373284691   -6.41221515102987  -11.20730063041410
C         -12.19928288269641   -6.77930603567879  -12.32393376371276
Br        -14.60275958320031   -5.69625308224993  -11.14315426359618
H           2.22018112279633  -21.47606730698393   -5.32680520482289
H           2.21186110278800  -19.68837740072440   -5.75624778523709
H          -0.09574496166743  -22.58412548945912   -4.62179986922173
H          -2.56879718377371  -21.94014520070516   -4.31548019861447
H          -4.65057502162734  -20.86419835421223   -4.20061140796826
H          -6.60627837928417  -19.18929955982887   -4.27820460827299
H          -7.10722436934193  -16.66998016697144   -4.85857154922228
H          -8.13652010252534  -11.48194425504670   -6.20164887868426
H          -2.00926192412482  -13.90772751779443   -6.28311259490212
H          -3.67691205457209  -11.47974178511550   -7.18551028424781
H           0.43496369977903  -13.30202960471129   -6.31196936699606
H           2.80774516331821  -10.25046595669015   -7.50189974783214
H           1.18413075890343   -7.69325924848142   -8.17313677611803
H          -0.37682345822790   -6.09090139096270   -9.16770377851261
H          -4.92861788488972   -9.07696810451013  -13.36412533584137
H         -10.08817322812080   -7.74790585633929  -13.97194348352079
H          -9.28625792671125   -7.71451531726813   -9.02237865851284
H         -12.59543022977014   -6.69423801572959  -13.31937840430029
