84
 SCF done       -145.600009773736          0.000379722194
C           1.01025514607894   -2.61198202358843    1.50636872751973
C           1.63610559860108   -3.63705912600042    2.09979226618282
C           1.96637742374759   -3.78187585134678    3.48943996920556
C           2.60493938644322   -4.93243432138858    3.79287103969643
C           2.81943493549296   -5.79166492230639    2.67715154274963
S           2.19533073209889   -5.06183823566559    1.22048335733642
C           3.42035273154713   -7.02911542494848    2.66496888707307
C           4.07587692122742   -7.70997151693942    3.71909618314118
C           4.61072273485199   -8.90611004322065    3.35245564273694
C           4.39497209619904   -9.25028201233599    1.99293243409975
S           3.47353657861464   -7.99120830336094    1.20084226914455
C           4.83853587225360  -10.37103235448956    1.33300079201836
C           4.54033121958026  -10.61395590969913   -0.01561684452170
O           3.70536132445244   -9.75581429979157   -0.66738718685581
C           4.93178002234559  -11.59371929178903   -0.91967548257892
C           5.73535705957054  -12.79967293061807   -1.08079454009656
O           6.42582627292040  -13.41235470203805   -0.30469896561836
N           5.53963778338161  -13.14702964691928   -2.42026692740138
C           4.70070926194686  -12.29850888388176   -3.13915349024801
O           4.41536451096687  -12.42969420923786   -4.30309137573982
C           4.30748905860788  -11.29040830353300   -2.15451855551543
C           3.54568606688869  -10.14967348538969   -1.96389404816253
C           2.68509998622168   -9.41367571709824   -2.80623282811223
C           1.92174082675800   -8.39512523181894   -2.31848161997991
C           1.03645730094098   -7.59226398913754   -3.05477174844208
S           0.91668352627304   -7.66236795439748   -4.77956187435791
C          -0.27528065026828   -6.40657023785633   -4.85678301782485
C          -0.59682752049050   -5.95944619429177   -3.56707349487507
C           0.14741818000711   -6.62561089825979   -2.54267527073343
C          -0.07329326849355   -6.30499211738858   -1.19933498086268
C          -1.00379436605721   -5.34013532961554   -0.86625954399290
C          -1.24207174672431   -5.01626584341887    0.53692576617090
O          -0.69503263679949   -5.53701007248257    1.48100580094617
C          -1.73194507282809   -4.67399097355153   -1.88458584985073
C          -1.53994623852185   -4.97309072622322   -3.19948255874703
C          -0.80730550006470   -5.88367967928552   -6.06931662625605
C          -0.55052354690868   -6.26453279031082   -7.33364977364037
C           0.35393707913564   -7.39073399771711   -7.70891066108479
C          -1.17494372598536   -5.54751619453280   -8.51033389642985
N          -1.95593988324133   -4.38004561550800   -8.20526425869570
C          -3.24475761832903   -4.42661670095483   -7.76238725338541
C          -4.02715680575186   -5.52854046294707   -7.68069246375562
C          -5.38864989161766   -5.48115970790940   -7.30515356388015
C          -6.20986513120023   -6.56995963953830   -7.26595797425267
C          -7.58659879217232   -6.60337956324047   -6.91929651672438
C          -8.16070412722383   -7.82999427822119   -7.00393919298165
C          -7.27633049271382   -8.85826186021103   -7.42286327382740
S          -5.67436118214096   -8.19840602694777   -7.69361903896730
C          -7.56053360326424  -10.18564451682576   -7.62108003439063
C          -8.81090366498488  -10.84099781146467   -7.45132032088058
C          -8.79483348295500  -12.16205731909105   -7.73580355065350
C          -7.51873060072512  -12.66499151916565   -8.15673135390858
S          -6.34652980472017  -11.33775112537626   -8.16062110395735
C          -7.20471306150331  -13.92057749664404   -8.50394009600889
H           0.68086673343334   -1.76274294238497    2.07878629348269
H           0.81182480290841   -2.60704932460358    0.44973099322993
H           1.70436598977779   -3.01613761293510    4.19791442676068
H           2.91977826972236   -5.21230646702168    4.78263038636891
H           4.15035322702779   -7.29279288896061    4.70758442394335
H           5.15598862250354   -9.55957343021575    4.01026750757749
H           5.44770770036714  -11.09752411507813    1.84614619060386
H           5.97626732392627  -13.95620338274867   -2.83740639747374
H           2.64344973071134   -9.71536327971222   -3.84203808110453
H           1.98857849656659   -8.17772743623460   -1.26114475600199
H           0.46687468060754   -6.80370051727777   -0.40984957526109
H          -1.99585209640452   -4.21760227613720    0.69254028891593
H          -2.45587113574423   -3.92511261726362   -1.59697854501856
H          -2.11502330250317   -4.46907028001963   -3.96123816281859
H          -1.50330705839559   -5.06948031812870   -5.91895911791136
H           0.34524030876605   -7.55187180338165   -8.78383419967514
H           0.04455372623743   -8.31240508138004   -7.21668662819686
H           1.37837067173595   -7.18585427798616   -7.39626943427474
H          -1.80949748102545   -6.25303734254793   -9.05782592296892
H          -0.37033544886418   -5.24285189714259   -9.19019759180578
H          -1.43276339513346   -3.54483242764166   -7.99691861375196
H          -3.65960205745188   -3.45796674731761   -7.51418774926512
H          -3.62841214327602   -6.50539819601891   -7.90952876791179
H          -5.81498299666013   -4.52123565489421   -7.04290140165214
H          -8.10532196661702   -5.70784105262452   -6.62302581260334
H          -9.19363350340380   -8.03172691825721   -6.78237664605941
H          -9.68318459649830  -10.30299198122577   -7.12333640407822
H          -9.64540063966150  -12.81714521690116   -7.66666437699189
H          -7.94949635420871  -14.69655294319722   -8.48774625250006
H          -6.21018333033373  -14.19216418120373   -8.80632959365337
