82
 SCF done       -155.382347927401          0.000393087186
C           3.79875037132414   -6.40398675553957   -8.64947786655465
C           4.46388050674758   -5.56639472757907   -7.84178140750551
C           5.41911795588571   -4.56118934965406   -8.20993412323315
C           5.95778684026115   -3.89432005870247   -7.16447826783638
C           5.46571581132208   -4.30108710943237   -5.89298440148179
S           4.28158256616800   -5.57503637974350   -6.07877804952144
C           5.82540250827249   -3.81619878731755   -4.65470531552782
C           6.80483432887013   -2.84461250442793   -4.34090712143878
C           6.93633016061445   -2.60811121955463   -3.00600967129737
C           6.06255628026929   -3.36824612892485   -2.19119009798414
S           5.06439370173774   -4.40138366019377   -3.18814323224655
C           5.97034158367441   -3.34527680737405   -0.81677938043433
C           5.04618448828487   -4.11955149177170   -0.11082149884435
O           4.17618797334191   -4.91056343970613   -0.80491569657485
C           4.77680268268711   -4.27909750050212    1.24635429090325
C           5.17460222807125   -3.85932730844525    2.58885526232213
O           6.02875753309286   -3.09736260202067    2.96662486177577
N           4.30609139590894   -4.56533770107160    3.42246847055149
C           3.39403473134323   -5.39085895284124    2.76557870976360
O           2.56490765535288   -6.07945088418991    3.30788306383971
C           3.71058793334603   -5.19495931985238    1.35347507827027
C           3.34852136878891   -5.57021617911409    0.06118042419329
C           2.34985255900842   -6.42025256768974   -0.42537754585520
C           2.17023384020475   -6.57049873832855   -1.78393261627773
C           1.26290346244022   -7.31987185241338   -2.51975376508725
S           1.33050386205130   -7.09549549780413   -4.25564045212530
C           0.01184404710469   -8.21186072076806   -4.54516082776043
C          -0.45785322550451   -8.74587465451876   -3.35189107166521
C           0.24274295027527   -8.26012370014656   -2.18195057231908
C          -0.05458889678367   -8.69319202075605   -0.91692295142132
S          -1.28819560734361   -9.82070544228942   -0.52578148410127
C          -1.95783058308468  -10.19315195013091   -2.07420330215551
C          -1.52478951398795   -9.67849281372238   -3.24074555615812
C          -0.43201431926431   -8.46382736261434   -5.85897804342684
C           0.07496875743377   -7.83629652342884   -6.95955472675409
C          -0.35275610633937   -8.08566389848123   -8.27575951371165
C           0.14582640843161   -7.42872801195636   -9.36695883854844
C          -0.27152716080349   -7.67686566432101  -10.68457661184848
C           0.23194621654578   -7.01470933917941  -11.77317224687512
C          -0.22400661754253   -7.27015910952953  -13.07434449550302
C           0.21830023156943   -6.63258729343828  -14.20955613599628
C          -0.26049515508554   -6.84184727592458  -15.55670694640435
C          -1.18860004407516   -7.76494121338603  -15.97668254191268
C          -1.60920826482437   -7.91298098315159  -17.31351847162012
N          -1.99476789111116   -8.08703491026077  -18.38162324789184
C          -1.84934479095967   -8.70115932253704  -15.15673217985828
N          -2.43152813024722   -9.49704677459027  -14.56622576523168
C           0.42848376331886   -5.89174723528347  -16.42635241734599
C           1.33693042664132   -5.13720681324738  -15.64543260114344
C           1.25544371568209   -5.58025751759417  -14.23749907039718
O           1.92126757746650   -5.15278120798439  -13.31444724377369
C           2.13384296997222   -4.15424624747056  -16.17808078850711
C           2.02718821964356   -3.89837898211839  -17.54957602920463
C           1.11625307787151   -4.65586322294177  -18.32164439183139
C           0.31235052390440   -5.65324875053121  -17.78275080970433
S           1.13927666131326   -4.17495622509718  -19.99193473189461
C           2.35575949251745   -2.97845569308054  -19.63346523681886
C           2.72759518192986   -2.93969480030448  -18.33224550106987
Br          3.01992349047790   -1.89203694292513  -21.01149310080477
H           3.93430970829087   -6.36391492576472   -9.71602657412274
H           3.12384249966981   -7.14526381168986   -8.26108076274367
H           5.66381518598023   -4.39064284755437   -9.24306470494105
H           6.69305838915306   -3.11468819420272   -7.25526419497744
H           7.38923786235515   -2.35640190567832   -5.10011039662914
H           7.63196265075055   -1.91005302302299   -2.57510071944545
H           6.62587409225875   -2.70916015002023   -0.24384050766781
H           4.33650249611413   -4.48367128162386    4.42833251656021
H           1.74391936864344   -6.89892178308533    0.32390803015602
H           2.84406982917943   -5.98364317091139   -2.39803595764274
H           0.48226184885113   -8.35530586603643   -0.05030356133504
H          -2.77193987380904  -10.89643956538229   -2.02246441102362
H          -2.02020149443196   -9.99167210242154   -4.14776687823480
H          -1.21945031480342   -9.19360726873775   -5.98963792399157
H           0.85095383394466   -7.09418370448395   -6.81661280311712
H          -1.11651969333658   -8.83927380098809   -8.42300013089031
H           0.90046759113538   -6.66687299209289   -9.21898219529333
H          -1.03284133130442   -8.43240870190949  -10.83973086515554
H           0.99650488871645   -6.26455864354422  -11.63418075807391
H          -0.99865046523910   -8.01940257711475  -13.17538859441907
H           2.81654692792302   -3.59659583488395  -15.55619095221529
H          -0.36668380652361   -6.20041451478222  -18.41475287108599
H           3.46411807211495   -2.26329318558644  -17.93848698209211
