108
 SCF done       -170.864815195670          0.000905236367
C          10.73130464094769   -4.92156628536799    9.94830610884301
C          11.43697019138471   -5.64393927789641    9.06946874421891
C          12.59699257130612   -6.45184828234729    9.32704512325070
C          13.10415621679858   -7.06736482772667    8.23900825249856
C          12.39603223501494   -6.80483045134196    7.02921406977745
S          11.04198304739736   -5.73045826279938    7.34511809331876
C          12.67512900429376   -7.28392722441357    5.77849967736733
C          13.73917510531678   -8.15329693268775    5.39813664491001
C          13.76646673035478   -8.45893982901617    4.08339926801152
C          12.71817372257924   -7.85494226368015    3.31509681800940
S          11.70167667430998   -6.86504507921161    4.37655754378331
C          12.46060998420579   -8.00813691507486    2.00244910718310
C          11.37483638854454   -7.29244891162931    1.31467418125831
C          10.18725244647018   -7.87477795020306    0.85951242436672
N           9.71561467125025   -9.16718660817883    0.97315332360031
C          10.40115924610562  -10.21164080991489    1.68815802181070
C          10.02478669482057  -10.22983773253382    3.17029016849675
C           8.46810096992197   -9.24249312772255    0.38952276608036
C           8.14822967926040   -7.97401475869363   -0.15383631542866
C           9.23110872240076   -7.09421500542683    0.17143466777251
C           9.43427418776238   -5.74036554519807   -0.05680994518174
C          10.59105823000185   -5.16319669162380    0.42212719047422
C          11.53512972305929   -5.92839695852573    1.09640118756161
C           6.97853144896689   -7.75763743269445   -0.86740465189840
C           6.11801977692956   -8.82213378002395   -1.04698372490697
C           6.41764536006322  -10.06496526681419   -0.51503030220651
C           7.57844889240475  -10.32517249809973    0.22235960210848
C           7.77525442615946  -11.63431422931848    0.79819766956777
C           7.37381906254004  -12.83493989715823    0.30384471664747
C           7.61385796582740  -14.09188745117098    0.93908770491771
C           7.20620351439527  -15.17321603274076    0.23288606692142
C           6.59381289713719  -14.85727265480914   -1.00746418571587
S           6.57212739214171  -13.11801473114790   -1.24337256767038
C           6.05347098934086  -15.72389712693743   -1.92455924597130
C           6.02545971907241  -17.14148044308232   -1.87092819691498
C           5.42120317209328  -17.72357671147795   -2.93389907949008
C           4.90772114547637  -16.80959511819026   -3.90479584348846
S           5.27828393504142  -15.16027431949193   -3.39598752022140
C           4.17816907134787  -17.16717773804605   -4.99332526924972
C           3.62418496899579  -16.29405819007003   -6.00360199475717
C           2.40200100705587  -16.51574216528804   -6.67064197504015
N           1.42860002579535  -17.48216878106287   -6.50007903708932
C           1.43872691732732  -18.51049782157529   -5.49348916427329
C           2.09205663298343  -19.80447318745868   -5.98474970231695
C           0.38343371225986  -17.23102945627941   -7.36668326200827
C           0.68075389797111  -16.06304638689066   -8.10662698960898
C           1.96716262207535  -15.61109050358865   -7.66720667859184
C           2.71727194051991  -14.50130098289218   -8.02766457303188
C           3.91450025750227  -14.28529600079942   -7.37536352225929
C           4.34388434170898  -15.15783194682843   -6.38945405821686
C          -0.21585547976170  -15.52863989357324   -9.01985971199029
C          -1.43175568280249  -16.16121766185623   -9.18594802262000
C          -1.73461355030597  -17.30276328036002   -8.46259758735349
C          -0.85100753238165  -17.88524082555345   -7.54791029856514
C          -1.22768366030330  -19.12546273001362   -6.90463107340915
C          -2.46486060135783  -19.48739735109111   -6.48129990151581
C          -2.79323613077081  -20.75007136874628   -5.89635017669359
C          -4.07459959437587  -20.86463297615272   -5.47886833231277
C          -4.86398605370348  -19.70258813100051   -5.69950469904754
S          -3.89824422825317  -18.45474299349234   -6.46975572885730
C          -6.18718850434079  -19.51994497149747   -5.39592674785560
C          -7.07538253880751  -20.45614072103789   -4.79266795014777
C          -8.33300962984707  -19.99886478858108   -4.61482903912497
C          -8.54700581688700  -18.65289180513646   -5.06768209752952
S          -7.03306041511700  -18.01674269635060   -5.73074534478840
C          -9.68254076664267  -17.94390098930671   -5.02109624402897
H          11.00806033515635   -4.89743136142960   10.98739287768567
H           9.87360560604798   -4.34778600262657    9.64949038828332
H          12.99671970940670   -6.53164683518494   10.32246384389041
H          13.96852699465668   -7.70783836023536    8.25218613345972
H          14.44826099137866   -8.51891370293850    6.11982062464538
H          14.49446456696068   -9.09834692263619    3.61521400323000
H          13.12794820190581   -8.61855919397475    1.40595685668154
H          11.47484514823196  -10.03783434539941    1.59820284832181
H          10.17577587850940  -11.16890853226263    1.21114513348970
H          10.31482520702126   -9.29210567123924    3.63738767752424
H          10.53566801608318  -11.04474615045850    3.67750268870884
H           8.95137297700631  -10.34845315135838    3.30068858371248
H           8.69656358078537   -5.15815882293652   -0.58714221153888
H          10.77454585307494   -4.10953173216885    0.27570367507003
H          12.43847190124340   -5.45752379160830    1.45620456900982
H           6.75772969992247   -6.78177104699157   -1.27119264597983
H           5.19799368968517   -8.69162445086046   -1.59627481212534
H           5.70031840188178  -10.86123561618993   -0.63533348440545
H           8.27359053613534  -11.68658605879156    1.75472914589509
H           8.09344248341287  -14.14007195459361    1.90172129494968
H           7.31963759047560  -16.19061894724839    0.56310172373777
H           6.45358676867076  -17.68301319717638   -1.04605741276551
H           5.30615883286719  -18.78626381348475   -3.06184567882828
H           4.02998903708795  -18.23012578408585   -5.11147206177456
H           0.40419423318286  -18.70300680021326   -5.19416910986561
H           1.97321603033273  -18.12851073624950   -4.61896176469489
H           1.55888240821201  -20.20848188591538   -6.84224875789125
H           2.09059018639719  -20.54652849694054   -5.18995348144740
H           3.11803846650938  -19.62922404154510   -6.30051383776622
H           2.36444979674394  -13.82789373051906   -8.79324134571262
H           4.52812560160921  -13.43480960581633   -7.63105659359765
H           5.29939167744917  -14.97765154843618   -5.92240748933096
H           0.03434323830155  -14.63828627678359   -9.57549721335573
H          -2.15465369932114  -15.77448719917006   -9.88810717311940
H          -2.67743661600825  -17.79470942720874   -8.64374573012534
H          -0.46188306100332  -19.87831949410080   -6.78551160341721
H          -2.05239497627750  -21.52624082807110   -5.80884400693960
H          -4.48404652855716  -21.74396083446152   -5.01431819292674
H          -6.74315300590141  -21.44045619930479   -4.51241258716949
H          -9.13735317516738  -20.56283529903267   -4.17623819813829
H         -10.57980708738845  -18.37130482827545   -4.60961500719750
H          -9.73653148793976  -16.93646355323493   -5.39132004978994
