113
 SCF done       -192.288260959069          0.000684270292
C           8.95405245171166    0.41217056168178   -5.00627703423892
C           9.24217816878191   -0.09920861499814   -3.80202501841764
C          10.43498967761744    0.09437076596839   -3.02722054015392
C          10.44367652078135   -0.55172460678266   -1.84117718644514
C           9.26581122084474   -1.30897264136866   -1.57877034856273
S           8.13923882364796   -1.16234749173155   -2.91246031198112
C           9.00038853943722   -2.07000492350878   -0.46691177901606
C           9.83185554906550   -2.25790112994225    0.66579132579966
C           9.30520493066210   -3.08970921323342    1.59911812791538
C           8.03036197213051   -3.62360858814840    1.26362040789745
S           7.51233543503458   -2.98762451701032   -0.28655349574619
C           7.34050271138918   -4.52253962600242    2.03266976186025
C           6.13283257815028   -5.18097886924491    1.74864588854305
S           5.30729114561135   -5.01433251630421    0.22190652017083
C           4.22279211836562   -6.28811758448441    0.63131156185290
C           4.46416544481844   -6.83230698253668    1.85252641766971
C           3.67013828912377   -7.94738875090020    2.44765178874506
C           5.53704809402505   -6.18442341015224    2.53080983087638
C           5.98171513379090   -6.54888147756790    3.84125104820627
C           6.43508932428667   -5.67251137050244    4.77332571512743
C           7.11032086059671   -6.05070325286159    5.95712869945091
C           7.56629889732771   -5.14290418853488    6.86423932602125
C           8.52708170770097   -5.42158946563117    7.85789143880799
S           9.05645396986585   -4.16951018151385    8.94264287788110
C          10.41152003494438   -5.08544256174424    9.51911799811900
C          10.41429720910142   -6.35604299826810    8.93584322486233
C           9.34648801466794   -6.54924036337320    8.00911884599712
N           9.24342141591334   -7.69326669046305    7.30115539252852
C          10.15080358044142   -8.61039128089664    7.52398687668799
O          10.13589615392669   -9.75114536709578    6.83878785146769
C           9.10021716555750   -9.92226532599669    5.87810950319971
C           9.35346934295464   -9.12409937159184    4.60463712337379
C          11.19546744524656   -8.43718502670398    8.50289113772131
C          12.14603963359123   -9.55883556657318    8.80445119790262
N          11.46393179663241  -10.52823612793477    9.65573695315924
N          11.31329433835846   -7.33339617969881    9.17882623449840
C          11.43888806728670   -4.48075694192837   10.27280385696552
N          12.66785124210959   -4.90018127420850   10.29890724140960
C          13.47256395505508   -4.02540414733768   10.90925709475881
C          12.85937988988132   -2.89769378510109   11.41327700710326
S          11.17545182049642   -2.91900076675460   11.11626269264752
C          13.91316547597934   -2.07772173756354   12.04810283931320
C          15.06805298833162   -2.39393180995351   11.05642549258694
C          14.98914016157529   -3.96351335675308   11.00760285780699
C          15.46385755082914   -4.67075437782011   12.29187369439849
C          16.96101935065944   -4.55626906464523   12.55324390112926
C          15.63397119818561   -4.64096504721213    9.79241213891360
C          14.98464630127373   -4.33500496006216    8.44788638934066
N          16.17745066605288   -1.47825957354312   11.38719457166458
C          15.83857711090977   -0.77479646071658   12.60232338247396
S          14.05552671357153   -0.30736998827687   12.40888071500430
C          16.59133166240663   -0.61620768928030   10.41072995548936
C          16.77143528032564   -0.75865554863135    9.07140233950839
C          17.05049708768818   -1.85194380498707    8.17436819288193
C          17.93088323450831   -2.86384115646553    8.44887529564708
C          18.32585256147034   -3.82684874801465    7.50216987629530
N          18.64916225550750   -4.62900280375880    6.74729707003228
C          18.56678001799004   -2.93415373075013    9.70587177411988
N          19.10458806813678   -2.96465667615194   10.71871949512834
C          16.53602307226997   -1.47934947169282    6.86076883647611
C          16.22955298150927   -0.09631431232129    6.88437136149850
C          16.53099546300576    0.44816156145735    8.22832585099482
O          16.51460998432255    1.60254477360636    8.58268181500524
C          15.67898376464164    0.55015967323818    5.80474255325979
C          15.38936119938971   -0.21343576232910    4.66802686142677
C          15.70902459874879   -1.59181090030794    4.65530905056365
C          16.30093482943905   -2.23951591789952    5.73371550668395
S          15.21785452384559   -2.34936323481810    3.17050849095265
C          14.58339184667835   -0.82777481476283    2.60309957669636
C          14.74580166052661    0.19984485258479    3.46767782140466
Br         13.73163546560266   -0.74906976503782    0.93827129769093
H           9.65444123284034    1.05340849304360   -5.51168593746173
H           8.02476223031037    0.20180628319081   -5.50291197297486
H          11.23533775535011    0.71000007073435   -3.39743524271348
H          11.25934374876356   -0.52064634288177   -1.13987858238831
H          10.78988677143720   -1.77745155727074    0.74825304170468
H           9.78929015493625   -3.35604561913761    2.52264884366226
H           7.82153320962532   -4.81211832515960    2.95828924233452
H           3.45698176696479   -6.56225350863326   -0.06752508365395
H           2.86391937644366   -8.23798981604649    1.77956267402939
H           3.24524173151768   -7.64274350688823    3.40298232636929
H           4.30683933079793   -8.81443038326036    2.62272426689642
H           5.94287600946147   -7.60253929291188    4.08993230560966
H           6.31873078191743   -4.61091719440443    4.59363964539365
H           7.36522545795778   -7.09095370932583    6.09110821787650
H           7.25145087781071   -4.10955403919510    6.78492514176219
H           8.14440087007677   -9.63036913263761    6.32586719934718
H           9.09684831721640  -10.99439810946064    5.66875753825703
H           9.34972769582367   -8.05918814636912    4.82224629026587
H           8.57420245060037   -9.33760259142613    3.87839187081373
H          10.31659545445344   -9.39417079311600    4.17846558527658
H          13.04720280431040   -9.12285534610708    9.26267327453951
H          12.41514620235207  -10.06496297620734    7.87378400584134
H          11.22015584861539  -10.09409075396940   10.54034287221649
H          12.07787955385199  -11.31125183154901    9.85096478027242
H          14.11468234243004   -2.52396857876788   13.03022429440739
H          14.72898326689462   -2.08177116768116   10.05728907238837
H          14.92231499727107   -4.28371810893733   13.15702510157924
H          15.18782304173920   -5.72348280720463   12.20164346275669
H          17.29141203999269   -3.52184463859857   12.52026743049613
H          17.53393640069978   -5.11383311674307   11.81853868159092
H          17.19259548232091   -4.96171751399014   13.53533994594813
H          16.69146357119049   -4.38442723773678    9.77490574272741
H          15.56192383647564   -5.71848425928167    9.94998175716766
H          14.91478225016212   -3.26607152705761    8.25486882365680
H          13.98333167735499   -4.75569267653761    8.41472221458275
H          15.57224663419549   -4.78889116496186    7.65271444267673
H          16.44481951677206    0.11423207443075   12.74905962902933
H          15.92679075467234   -1.43230179988524   13.46883628301182
H          16.66657822085816    0.41982818735045   10.73561938467886
H          15.45378211079935    1.60432026189436    5.84204013696528
H          16.52416189689787   -3.29318307005781    5.69091036621854
H          14.41368057941331    1.20451697638839    3.27878666779130
