130
 SCF done       -213.659933856366          0.000843637938
C           2.79923533321160  -17.49011777297060   -0.95861012445934
C           2.49569744257412  -17.30565713279906   -2.24922501289562
C           2.26128095789112  -18.31138318217298   -3.24826342715977
C           1.97399812740060  -17.82656379489952   -4.47361804764725
C           1.95775205373762  -16.40238953483953   -4.55415585721307
S           2.32501370414683  -15.70414279902575   -2.98662287056333
C           1.70276740157387  -15.63341005038078   -5.65677749533594
C           1.39819973549408  -16.07604054117733   -6.97600397969633
C           1.20258342519293  -15.07989542512228   -7.86704660114072
C           1.33782693432356  -13.76288591377585   -7.32146709002930
S           1.71682270307135  -13.87656347488560   -5.59428550666723
C           1.17357495200701  -12.59039086154306   -7.96796673640882
C           1.28316377449315  -11.28476569606929   -7.32083658744451
C           0.14142422927800  -10.47797041242434   -7.25551778466777
C           0.11865350459668   -9.29171564986781   -6.55152933013487
C           1.26052666344908   -8.83587681427517   -5.90350204355903
C           2.41439010340719   -9.57630723390075   -6.01670158246936
C           2.43589479729958  -10.79173895449612   -6.71335324879330
N           3.73184126767123  -11.29702011306120   -6.71450863391735
C           4.22336435165860  -12.42331935085128   -7.46215340893607
C           4.59214169608096  -10.47453167497021   -6.03793789308093
O           5.77921263075917  -10.67001964629801   -5.91694017235002
C           3.80324976742402   -9.26419705650774   -5.55427709602473
C           4.36760575669140   -8.00397903044158   -6.25205997042866
C           3.60406023105822   -6.76881869707293   -5.77861604026209
O           3.55754887218879   -6.31832146089801   -4.65921725101605
N           2.93162090556179   -6.25705908025351   -6.85690115989496
C           2.04728302698574   -5.12666681975062   -6.77197764350857
C           3.17920270183317   -6.99132175276247   -8.00665448290516
C           2.67058373274454   -6.81204366485330   -9.27413583406384
C           3.05935884688757   -7.70164299801438  -10.28555090444515
C           3.97694297728880   -8.71363910005327   -9.99601979622750
C           4.49432559850088   -8.87716131694481   -8.72001862914406
C           4.07994317552097   -8.02484721310238   -7.72031600604208
C           2.51348112680413   -7.50913436843642  -11.61245634315981
C           2.51197682614546   -8.37988526738881  -12.63044037901374
C           1.96782431674629   -8.01282897311364  -13.92493440196601
N           1.94419022489891   -8.94892206207955  -14.87704814713472
C           1.45911529074369   -8.58622152203820  -16.05332387760638
C           1.01524694779735   -7.30290780704330  -16.31993279088109
C           1.10116734452218   -6.38047923309516  -15.26850671846164
N           1.55713616474377   -6.76060848084764  -14.07767157353605
C           0.72975643099034   -4.98714516648393  -15.42109129601118
C           0.88487409974504   -4.12503413357281  -14.40552955518624
C           0.64960453271342   -2.69634260141618  -14.43252917216465
C           0.80869164511244   -1.97116311538820  -15.62321879070495
C           0.71826680216994   -0.59613378051331  -15.66956759972069
C           0.51702454969739    0.13900838532058  -14.50526874837060
C           0.36212811136482   -0.54751214575390  -13.32320860155625
C           0.36407434546371   -1.94828244006745  -13.28602266522189
N          -0.00291063866671   -2.36426944074580  -12.00974479517823
C          -0.26386489624335   -3.70844627409245  -11.56904430461431
C          -0.23267721509028   -1.29405551676101  -11.18098208956467
O          -0.67028594170851   -1.37728172946409  -10.05850038005193
C           0.22649736464079   -0.04249214121762  -11.91898109325032
C           1.63595418924401    0.33834556656035  -11.34326064149908
C           2.40192060838380    1.04072982020743  -12.46623242012929
O           2.25109391120279    2.16896535140044  -12.86904947430710
N           3.26808624779731    0.12414085974465  -12.99704950427525
C           4.07679221560876    0.37461962646215  -14.15763080902889
C           3.29816556541800   -1.04436473103977  -12.24545389537711
C           4.01581785065923   -2.19943458993735  -12.46115235718728
C           3.93007051214640   -3.22069152600008  -11.50279956131224
C           3.19136950645694   -3.00697366561740  -10.33390746717333
C           2.42433168834355   -1.86669135383114  -10.15607684704947
C           2.44556151913411   -0.90433755422850  -11.14224519827782
C           4.54088118682334   -4.51433161114211  -11.70624460906102
C           4.71416428602653   -5.08885645242748  -12.91717605878135
C           5.17590215866328   -6.41270716581196  -13.09820542179361
C           5.10976551553003   -7.07875837603131  -14.28601616928625
C           5.42901098558367   -8.44387625026820  -14.52539730302691
C           5.13988679610600   -8.87768019262612  -15.77619676090020
C           4.57978087216065   -7.88046877499043  -16.61763779300570
S           4.48455161662860   -6.35296505226394  -15.76268512652819
C           4.10987473440291   -8.02439126202385  -17.89718397563301
C           4.08559418240014   -9.20936999004250  -18.68532444431493
C           3.51792304760467   -9.06002408702130  -19.90148425400837
C           3.04785106661492   -7.73237370709771  -20.18005004933732
S           3.38201315328798   -6.69501540370480  -18.78198940410312
C           2.44651478953773   -7.29259915972518  -21.29308643621150
H           2.89607220344219  -18.48192774859600   -0.55343243791985
H           2.96155115310509  -16.66327715448131   -0.29180990997971
H           2.31947399861614  -19.35575626193250   -2.99703945227783
H           1.77048054991508  -18.43731047614571   -5.33557985790121
H           1.33538376257255  -17.12283054621508   -7.21476128998686
H           0.96559456604864  -15.22287407055624   -8.90672945673843
H           0.82753381828792  -12.60896381684975   -8.99342435577270
H          -0.75661464817334  -10.82751550937164   -7.74361036894004
H          -0.79469089898924   -8.71919213542371   -6.49848755447638
H           1.24389567105855   -7.92195236493493   -5.33072629617485
H           3.83535823624036  -12.39645967499569   -8.48121586264066
H           3.94640222813066  -13.36860026956678   -6.99495312169535
H           5.31142678621979  -12.34728330993232   -7.47386915370052
H           3.88835837236994   -9.13325608017828   -4.47283480633189
H           5.43105938870001   -7.92674774119321   -6.01000211350036
H           2.01556616536648   -4.81468228280588   -5.72854428053682
H           1.04374962165412   -5.40093749228053   -7.10323618191116
H           2.41330655065268   -4.29738250207533   -7.38081517619373
H           1.96808799184005   -6.02251313538269   -9.49293224120911
H           4.29816496209507   -9.37375255863895  -10.78612330080229
H           5.21488276966259   -9.65428814662950   -8.51735334455036
H           2.04972805944569   -6.54859987748599  -11.79433238129644
H           2.90778714874235   -9.38089272616148  -12.56006218682869
H           1.43624536286033   -9.36185029049968  -16.81018537467407
H           0.64007101656212   -7.02039889264418  -17.28977236582713
H           0.33199176982761   -4.69219111274913  -16.38096394213100
H           1.28155058507203   -4.53324883404814  -13.48785705226650
H           1.03962595072676   -2.51781953841450  -16.52449818182506
H           0.83383947506777   -0.08253007833941  -16.61158976902095
H           0.49539406734196    1.21696699579190  -14.52602196467515
H           0.66742342254837   -4.22423660857999  -11.32355722692124
H          -0.80164127375614   -4.26709550876625  -12.33470188499703
H          -0.87289363314816   -3.63573792458425  -10.66669201569649
H          -0.45311433889770    0.80076155856688  -11.80273127092344
H           1.51049319862076    0.95664105478813  -10.45528968274475
H           3.89022240367133    1.40099082036131  -14.47079084755684
H           3.80244512601055   -0.30778346746686  -14.96532608232574
H           5.13574780974464    0.25173943117100  -13.92276492353744
H           4.63934290125576   -2.31996042828162  -13.33199303996257
H           3.18979683598221   -3.77879709187094   -9.57843206859427
H           1.80969280481351   -1.74433797567395   -9.27751311083899
H           4.76483690484374   -5.09067260558298  -10.81728189288880
H           4.41709444301870   -4.55707242503357  -13.81215494856910
H           5.53810771117310   -6.95261830785573  -12.23350717126114
H           5.84282438972240   -9.05835844193882  -13.74538750773706
H           5.29248788154822   -9.88455742104080  -16.12039394291085
H           4.48863562037370  -10.13420079780253  -18.31225681926787
H           3.40666949215222   -9.84358552287068  -20.62999152261234
H           2.26342690266197   -7.95886010073240  -22.11743768687876
H           2.13257769578560   -6.27072888527417  -21.40107503619238
