92
 SCF done       -175.596674434874          0.000552044522
C          -2.49011631837028   -8.93173264910865    5.84339103398947
C          -1.52341294016948   -8.01813742205946    5.99640441852523
C          -1.36146227809562   -7.08159553005927    7.07306290050990
C          -0.28125823956848   -6.28045677550174    6.96055831226698
C           0.50231594875608   -6.50976522496975    5.79222328947677
S          -0.20438511556607   -7.79869716583202    4.83448042986980
C           1.65042935118607   -5.86170468911377    5.41797023764887
C           2.32060242027914   -4.80972579973031    6.09987184275983
C           3.44491684055018   -4.37896784293012    5.48245651605358
C           3.75036236191883   -5.05354907600475    4.26041037685046
S           2.51656254261824   -6.27345383194513    3.94786155127292
C           4.86032384765073   -4.85578353175171    3.50438695907664
C           5.19725462764821   -5.48804132719489    2.26357054218309
C           4.37145841082825   -5.78665446221254    1.19794271843211
C           2.94348727705122   -5.47976336068359    0.93394343837973
N           5.14344883697283   -6.36839371709584    0.23349394664371
C           6.43500165054110   -6.47943787506417    0.62480744795889
C           7.45873848283226   -7.05647259178830   -0.28333451118245
C           6.52963770718224   -5.92906757899645    1.90150411223193
C           7.64986145573037   -5.84479613406342    2.76778192358297
C           8.84466131544467   -6.48196175721779    2.63079847464736
C           9.90745776191715   -6.35930142689285    3.54730848335627
S          11.27063225595263   -7.44481953103113    3.48831107308019
C          12.03114918026351   -6.80522350149298    4.94053915348837
C          11.27166010655832   -5.71539159539662    5.39459222861838
C          10.10443805377364   -5.48374665764843    4.61901240903725
N           9.51501988196929   -4.38103303154855    5.14253399881548
N          10.23096727358221   -3.88622030800769    6.16142194659372
C          11.27318102767533   -4.65871164543931    6.34036295299891
C          13.22109952830480   -7.38588145767978    5.37216063221955
C          13.85212855055381   -7.28466250094785    6.59260342830659
C          13.34068717164370   -6.92456865972645    7.84891009087049
C          14.26217867736914   -6.65781904294866    8.91404184786747
C          13.82755785926773   -6.20358952962973   10.20735311844968
N          14.73355033961126   -5.89377754973349   11.15035328059330
C          16.00836040568120   -6.03502223547449   10.87880743780184
C          16.44061347153962   -6.51037474679454    9.60263166344585
N          15.56551970963342   -6.80095306907617    8.66266559761200
C          17.81914814799671   -6.68417100677575    9.33289896581624
N          18.94148916675714   -6.81273199194983    9.13987055751352
C          16.96946854064736   -5.71439934796925   11.87146951093244
N          17.77986165125081   -5.45876862457886   12.63924251138098
C          12.45988127717558   -6.00140436798308   10.50315589032239
C          11.54406721776158   -6.45876516064197    9.52639727062100
C          11.97097703249446   -6.91277453848528    8.22613767909792
N          10.94758918250363   -7.35921519277619    7.50257545529222
S           9.59747453974583   -7.23475163593665    8.36723365028103
N          10.23463965680411   -6.61008275427977    9.70170464227746
C          12.04777485932722   -5.42522351340319   11.72993671638873
C          10.93207149728125   -4.64263580785698   11.85839968295221
C          10.30784795611732   -4.20405638991008   13.08347105170684
C          10.52180689987865   -4.73290808331339   14.33164577841198
C           9.85725472887366   -4.30017833633163   15.49571107824574
N           9.34554079141205   -3.98195834324390   16.47342389307451
C          11.39611766324282   -5.80677565342537   14.59952691697126
N          12.06120714675569   -6.69716559423957   14.88754878304277
C           9.32439421598841   -3.18029042297652   12.74426948393045
C           9.31129844382109   -3.01592047018388   11.33822329410112
C          10.31632649623812   -3.91045196657585   10.72716469693373
O          10.63706928575760   -3.92891194203255    9.55708274596996
C           8.48381674891590   -2.12316081151663   10.70353171140655
C           7.61911389130461   -1.35990774061742   11.49564233942035
C           7.64120283894815   -1.52799730036963   12.89965038703490
C           8.48406694035669   -2.42744778276556   13.54221610971369
S           6.49875717836167   -0.48012197503568   13.68686293578752
C           6.01161044784572    0.15653439587501   12.13858988373589
C           6.66945457578328   -0.38336732387017   11.08609740894911
Br          4.67659932734897    1.47262788954995   12.05499289840437
H          -3.27150829972870   -9.03137148938442    6.57588446789293
H          -2.51863560286760   -9.58939866543328    4.99409553351989
H          -2.06650698659203   -7.05493973604160    7.88487071019926
H          -0.00885261477445   -5.52546493708057    7.67657058404546
H           1.94770603291660   -4.41139790580905    7.02637102977435
H           4.08036619043392   -3.59372393801920    5.85345576619578
H           5.59365073807332   -4.16825009552590    3.90872487181574
H           2.62537454001225   -4.63101151995927    1.53278545260636
H           2.30374839857918   -6.32680764878060    1.18472987562960
H           2.79948944608465   -5.24095793385517   -0.11897263185278
H           4.79183642267833   -6.66858826713605   -0.66251205810025
H           7.07262695129329   -7.10413713786397   -1.30003636671451
H           7.72986309040736   -8.06767814806954    0.02314705190979
H           8.35985604396916   -6.44619806199412   -0.28190501870721
H           7.49641457375760   -5.24984510584424    3.65740072028855
H           9.00478059415764   -7.17215946976573    1.81864519048644
H           8.70490754697360   -3.87942732138887    4.81950546436310
H          11.97438681995051   -4.43444168266720    7.11684783576341
H          13.73331336004846   -7.97900911084998    4.62243475522395
H          14.89870711821445   -7.56397446924761    6.61597122408051
H          12.70486840175954   -5.58315103282316   12.57559900331655
H           8.50364549643721   -2.01872575083992    9.62989792953897
H           8.47081482983512   -2.51332006778829   14.61601426466933
H           6.49635912117168   -0.10448387810326   10.06268511022505
