87
 SCF done       -141.337440390608          0.000365390615
C          12.26990345207081    1.71954644198877    2.34405961488692
C          12.39697860065062    0.78279437368860    1.39487716443501
C          13.58127903261136    0.43649258489919    0.66007537187534
C          13.40647922131896   -0.55436446984220   -0.23988559138943
C          12.07944255295588   -1.07339782517476   -0.29155563315042
S          11.05555189062881   -0.24237101741483    0.85559860515614
C          11.61086592474690   -2.07631594346264   -1.10660603504091
C          12.34169083816111   -2.81578349357455   -2.07228283821209
C          11.59362482567524   -3.73475041103336   -2.73084065759426
C          10.23036725680171   -3.78564604767156   -2.31870547057695
S           9.94251591244239   -2.61863365943301   -1.05361044502382
C           9.28268767515801   -4.58648814485522   -2.90173269503095
C           7.93007590302258   -4.73504493816826   -2.54438711382563
O           7.11096636277383   -5.30662236131547   -3.48142538051395
C           7.15987391164815   -4.45511789727564   -1.42183229669627
C           7.19121554281121   -4.00696766856144   -0.03506799815200
O           8.10027750723471   -3.67558451634161    0.68662819509033
N           5.85729282027149   -4.08686750128357    0.37519935474207
C           4.97964727886625   -4.60510132200665   -0.56618592171306
O           3.79866269223228   -4.78637547648637   -0.39260688498471
C           5.83088560608406   -4.85786831701192   -1.72732909228082
C           5.83957055326662   -5.37911267385345   -3.00441979022317
C           4.82409895702665   -5.93386755262761   -3.83206787758396
C           3.54221014370192   -6.05968745001042   -3.42887981579730
C           2.45619991026703   -6.61251644556630   -4.20095793213645
C           2.56213383161183   -6.90538176875026   -5.56622476166303
C           1.50644994645431   -7.43986518803467   -6.28735101385089
C           0.31510558116631   -7.69652589745718   -5.63470187475626
C           0.19219378077492   -7.40606427147967   -4.26060979889093
C           1.23474831582669   -6.86508681803806   -3.54828152744852
C          -1.17461602682271   -7.77797607487923   -3.80086153625170
O          -1.63727753704967   -7.67374849352111   -2.68992942433294
C          -1.84278512554161   -8.30735114132496   -5.02018239866355
C          -0.94781062896140   -8.24759480320101   -6.10701261053031
C          -1.35959878887508   -8.66291866121924   -7.35771427287424
C          -2.65011994858401   -9.15441541543384   -7.50896319806837
C          -3.53582957976230   -9.24286077859825   -6.43474766186359
C          -3.12162708756383   -8.78771765003414   -5.17301078851933
C          -4.89555469233467   -9.75069005468661   -6.57440389602205
C          -5.32224453487987  -10.77108833848555   -7.32325179688580
C          -4.44592444382010  -11.65874238890923   -8.15223150328075
C          -6.77683856527773  -11.18423140040468   -7.26702219668978
N          -7.00790554390842  -12.20089986616900   -6.25811860045690
C          -7.05921793056343  -11.84541654269198   -4.93009045837701
C          -6.71495375546848  -12.64336287156382   -3.90787731133568
C          -6.88835436779894  -12.26697060132139   -2.53265065407149
C          -6.54656517011838  -13.00499099055995   -1.46814237281814
C          -5.92754346570422  -14.36779511077722   -1.57328983254063
C          -6.72007299438402  -12.46831064044531   -0.06864989529087
N          -7.27333463632676  -13.45688978167804    0.83634394763921
C          -8.60787895978596  -13.80177660296324    0.77157323409267
C          -9.45142152178322  -13.54229051208543   -0.22067079719448
H          13.11183959343761    2.32017923068573    2.64047787718496
H          11.33252901393413    1.90031232816905    2.83713115465985
H          14.51013522096417    0.94706818780666    0.84319267304443
H          14.18339862167701   -0.94098071341426   -0.87518422965912
H          13.38848495325702   -2.64658340289712   -2.24998420074856
H          11.96593379538899   -4.38930064851549   -3.49918225719837
H           9.58155896408752   -5.14642342405961   -3.77808599345746
H           5.56890746078261   -3.83889102305907    1.31058070223058
H           5.15807126125613   -6.25767405453842   -4.80712460809148
H           3.28751219278631   -5.73747613104503   -2.42748801837052
H           3.48765391108568   -6.69814209731196   -6.08088357040845
H           1.61828691417625   -7.64877779731269   -7.34101348115295
H           1.12403928405057   -6.64308428756530   -2.49729277016875
H          -0.69869812797415   -8.60400532074156   -8.20982871841179
H          -2.98704131389057   -9.44117629822741   -8.49280832935042
H          -3.79384017463301   -8.82799682868137   -4.32855171272716
H          -5.62066641193462   -9.24276530813504   -5.94990505474951
H          -3.41346293651865  -11.63000596909516   -7.81307837097616
H          -4.47846476326340  -11.35416732885121   -9.19924088120987
H          -4.80244444667639  -12.68708135583129   -8.10299146864810
H          -7.09083994433838  -11.59001219036960   -8.23366601768387
H          -7.41008917092166  -10.32740046306084   -7.02576295349917
H          -6.50462103529570  -13.06334441008620   -6.42432872383575
H          -7.47922369773992  -10.86507682418829   -4.74926296707873
H          -6.29461282807784  -13.61688361206967   -4.11589673017504
H          -7.32617679507205  -11.28879676717436   -2.37113788592939
H          -6.55257083119287  -15.03054390481124   -2.16942771858121
H          -5.81675949185384  -14.80286972262661   -0.58411390380842
H          -4.94592188912742  -14.31094997843915   -2.04461249986321
H          -7.33987897411987  -11.55964212093636   -0.09705584252542
H          -5.73269149481041  -12.19247157511724    0.31977254795604
H          -6.89994804161018  -13.42054144173591    1.77202227368648
H          -8.93327677389149  -14.38466255913260    1.62507748208198
H          -9.16760491405002  -12.98259829316510   -1.09192208053633
H         -10.46009765239639  -13.91096949751274   -0.18607955734636
