134
 SCF done       -206.547674064896          0.000658513506
C           7.74140507637964    1.42561871565348    0.24153490185004
C           7.84010991782258    0.14174994794605   -0.12609940683053
C           8.97561625448200   -0.52042269038793   -0.70488409629496
C           8.78519609291760   -1.83010314324003   -0.96951034460985
C           7.49105439139665   -2.31837915740595   -0.62671449163922
S           6.51763813261190   -1.02278097187147    0.05047788104897
C           7.01427391298285   -3.59368343945434   -0.77451899681357
C           7.70215765796189   -4.72994585243208   -1.28227643867702
C           6.96382271411395   -5.86329764424140   -1.29856378528250
C           5.63222792050821   -5.71570383774864   -0.80073863313989
S           5.37208863271890   -4.03238778139567   -0.33232207332017
C           4.74069845224404   -6.72403601445333   -0.63098449150998
C           3.38722245040587   -6.58549935739139   -0.15177724538955
C           2.65151392861386   -5.48989464960605   -0.50881488231619
S           1.03957029346792   -5.48097064284757    0.06814585124171
C           1.32576340307703   -6.99460214074854    0.86822935956490
C           2.62247236883689   -7.49794231480993    0.67865987677326
C           2.96890993812188   -8.72345491461734    1.30639118416615
C           4.37636867994846   -9.24550500216556    1.17262375802323
C           5.35758331498250   -8.39221414653151    1.97994491408381
C           2.03501542591110   -9.40821602900126    2.07538449477954
C           2.32819527303721  -10.76912215676398    2.65732870551919
C           3.09336592948672  -10.70165694718117    3.98130654556420
C           0.74956595089279   -8.85851428692252    2.30204986579399
C          -0.35922703822396   -9.34007903537229    3.09341111441434
C          -1.45466526418031   -8.54023003970761    2.96422715498367
S          -1.23262205726665   -7.16930723064691    1.94991953468782
C           0.40467879871477   -7.66359087105648    1.65541698769937
C          -0.38594118751209  -10.44788318021229    4.03621271157070
C          -1.45223724841558  -11.23608648257682    4.21715868394870
C          -1.54013030078427  -12.20541543265972    5.29928960308826
C          -1.05038093804216  -11.86597697845771    6.52540878933622
S          -1.25835861218006  -13.05736778172546    7.74578810533177
C          -2.02755158347383  -14.09414209356061    6.58693429908480
C          -2.11826029673288  -13.53085183571925    5.30397707395867
C          -2.62966642219165  -14.32553980646162    4.24668098450473
C          -2.72853009349560  -13.70822073918999    2.87862646709994
C          -4.02462350837938  -12.90101276421475    2.74663676168505
C          -3.04921899479467  -15.62799825524985    4.48425941952217
C          -3.39235940832615  -16.57417147195286    3.35948915269286
C          -4.82363711076765  -16.44414355272315    2.83040253467697
C          -3.07263264897150  -16.13488469483513    5.80786180826356
C          -3.53893685418077  -17.40160363246838    6.32184381450865
C          -3.27734106788937  -17.53472959213300    7.65176621393493
S          -2.50524853555380  -16.17758860737018    8.37309645753858
C          -2.51877926195554  -15.36333386798677    6.83952383113943
C          -4.30289653923737  -18.42109650286598    5.61978385958449
C          -4.18031376646027  -19.73112047992618    5.84643993111766
C          -5.07206214857851  -20.72749576218833    5.25824081901806
C          -6.41530347961499  -20.57995700038213    5.40782633131514
S          -7.35322762841967  -21.90254482080205    4.82675040129802
C          -5.89557692809107  -22.70852745365365    4.33892216457905
C          -4.73613204857521  -21.95954182424629    4.58515885355189
C          -3.49855564943158  -22.43693666292963    4.08633641938152
C          -2.31862539706498  -21.49918592967344    4.14231423197986
C          -2.21581476642179  -20.68296645875834    2.85171247402716
C          -3.41512056062089  -23.68661228730299    3.48324904302132
C          -2.12713614835573  -24.14707726909497    2.84707563810391
C          -2.26789663576605  -24.32042007590233    1.33373940233315
C          -4.56826788656104  -24.51445358333488    3.40294357593567
C          -4.75050950636710  -25.87066153952729    2.91758617582347
C          -6.07189436784665  -26.22551974598913    2.89914189459363
S          -7.15169671361283  -25.02655338985679    3.47559655585702
C          -5.80671509147901  -23.96829474905763    3.77295649522050
C          -3.72690718924588  -26.82203202494065    2.57005652275945
C          -3.90896217820086  -27.88662167511838    1.75156370480137
C          -2.93930441057566  -28.86167723480703    1.40907678765428
C          -1.61553124138528  -28.93854390847176    1.74471161072356
C          -0.73719321423214  -29.97949392876224    1.32772445068489
C           0.54451769463521  -29.85364825202141    1.75281712451647
C           0.77956886628857  -28.69764098925260    2.54032877959251
S          -0.70890378953142  -27.78711867340231    2.71781541782952
C           1.95377343996532  -28.28284232639738    3.11435150655604
C           3.22123044315422  -28.92818820536785    3.06477314765939
C           4.20200868226357  -28.28527564111554    3.73489587331876
C           3.78780030404502  -27.06849148842181    4.37391121692810
S           2.06602851281387  -26.80423605417898    4.05569797763181
C           4.53453579290897  -26.23031442985995    5.10480820947412
H           8.57263971546353    2.09710360121721    0.11709691061655
H           6.84012123646410    1.82452757866247    0.66930259534211
H           9.88551876058912    0.02081195711458   -0.89576165127103
H           9.52836492654384   -2.47568257397490   -1.40357156293248
H           8.72529462298836   -4.66889599105227   -1.60807728329617
H           7.32075298110206   -6.81891629761909   -1.64154693554208
H           5.08273838669188   -7.70895385937429   -0.90948533307777
H           2.96663276857900   -4.69050182700369   -1.14972670039561
H           4.44335029021928  -10.26992915876606    1.52975189423245
H           4.66875612738791   -9.26296451478316    0.12304888446792
H           5.07674207482953   -8.38969517924110    3.03063515050750
H           5.36304937300326   -7.36352492876164    1.63059923854521
H           6.36560413909393   -8.79206158739534    1.89059099702915
H           2.89200671319355  -11.37133924522294    1.94229508082976
H           1.38048312169558  -11.28498377713376    2.81417212619834
H           4.11865550832343  -10.37863860710813    3.82517906007349
H           3.11182929123173  -11.68127474753574    4.45491379829579
H           2.62319737788900   -9.99426640290974    4.66112904087759
H          -2.39424343049381   -8.65895128937557    3.46800293803356
H           0.48635551044305  -10.58348608945215    4.65753904653704
H          -2.30745913122202  -11.11560664598547    3.57165248052166
H          -0.59746019830809  -10.93127700355544    6.79347771353689
H          -1.86933125293391  -13.05590405348708    2.71425198533365
H          -2.71176829773973  -14.47068921487694    2.10164787266743
H          -4.04449324486437  -12.36986044200459    1.79693798229478
H          -4.12026022466181  -12.18008842660875    3.55516500192819
H          -4.89066086974457  -13.55520095390915    2.79569638358100
H          -3.23576510683487  -17.59082449473544    3.72177968391789
H          -2.69284262367546  -16.42735205478189    2.53364215448014
H          -5.10208721102688  -17.34188413185705    2.28153442613794
H          -4.91769678658740  -15.59851750618686    2.15568919971036
H          -5.52888450570910  -16.30340564060758    3.64695680686140
H          -3.54813553203821  -18.36218502619860    8.27835578906453
H          -5.03946620545624  -18.07879794913242    4.90885447582215
H          -3.44318905138922  -20.09436697420673    6.55189716895703
H          -6.91716475593475  -19.76124725443940    5.88627293698631
H          -2.44517435825582  -20.80370510239204    4.96630295674855
H          -1.38868541102295  -22.03860682387361    4.32166098040040
H          -3.13796850883012  -20.12853528899234    2.68930185497452
H          -2.04911898845337  -21.32638872535978    1.99220679113311
H          -1.39336962404747  -19.97394560785460    2.91916719393161
H          -1.79337739931963  -25.08120638003423    3.29855129686426
H          -1.33542657353907  -23.42434374929676    3.02100035992902
H          -3.00136957573825  -25.08181032348385    1.08517369865685
H          -1.31184362984662  -24.61615781784852    0.90786174317629
H          -2.57931789957580  -23.38461995824610    0.87366610292248
H          -6.47663132275356  -27.17836332045087    2.62035065374163
H          -2.76753317692657  -26.68467773999257    3.03568803945925
H          -4.87436114031076  -28.02097626884601    1.28089569860779
H          -3.29054462741856  -29.66469797934137    0.77194180343783
H          -1.09638231971978  -30.79216633726213    0.72021526548753
H           1.32990418479996  -30.55181283312700    1.52445516893637
H           3.35610895814154  -29.85281415894195    2.53149277080349
H           5.22057552716631  -28.62304220888088    3.80955669903760
H           5.57787981776177  -26.43018423933100    5.27363952996500
H           4.12152864370307  -25.34058165115496    5.54327148408253
