86
 SCF done       -136.236667107383          0.000812205449
C           8.11217475807839    5.39253820544429    9.77767814799143
C           7.99613851998948    4.11245350149651   10.15401503811898
C           8.18747816836189    3.56351248072102   11.46617458675469
C           7.98345709021212    2.23200309320697   11.54851864316432
C           7.61499073060399    1.61403795424671   10.31876586423097
S           7.56664811024868    2.80969855441419    9.03490048915066
C           7.25133294859461    0.30779440007046   10.12170760095873
C           7.06170269768922   -0.69027340191094   11.11615846742751
C           6.47002519271556   -1.81949776240541   10.66004466777319
C           6.17235773133191   -1.80786759068152    9.26519395471605
S           6.78397785896480   -0.31418586167197    8.54686679809426
C           5.40383840995056   -2.71430196628547    8.60177048791357
C           5.10667477846329   -2.69111091452610    7.20621651130978
S           3.45233620536810   -2.88165803747806    6.70193612750941
C           3.90484355307205   -2.65918782947606    5.05773792577064
C           5.24006559407810   -2.50047914207606    4.87760797045810
C           5.82708604570221   -2.27396038428893    3.52331684024322
C           5.96428932455077   -2.54873683100974    6.11558452567303
C           7.37494908708382   -2.69260739469701    6.31211272973005
C           8.34257499949123   -2.94255431170143    5.39884611161662
C           9.64707326743442   -3.33608365654932    5.80125011399479
C          10.59338069161443   -3.79773483658778    4.94694230022166
C          11.83637740130531   -4.36554330826636    5.32650754524871
S          12.90646699740482   -4.98019865699427    4.07621391226812
C          14.06386393769655   -5.55564553851030    5.22947148736323
C          13.66237699655011   -5.29004001732948    6.49120433739810
C          12.40440706835178   -4.61247989330748    6.56442435245471
C          12.10622638385121   -4.38188926999572    7.94110193581685
C          13.11478247726145   -4.86508326144184    8.72030616854382
C          14.17906971035326   -5.52551131412285    7.87216878065666
C          13.20604111263657   -4.78607341587085   10.13908521096954
S          14.03980478211637   -6.02025409136811   11.03534724195134
C          13.63538568366615   -5.24825136115190   12.51768747330372
C          12.91197531258455   -4.11039552272079   12.36002281463233
C          12.49609843223695   -3.26676776220062   13.51895320378103
C          12.66172198410433   -3.81576698969084   10.98027558836837
C          12.10308817280756   -2.61753434447615   10.42648105304573
C          11.28261657197478   -1.70352289074136   10.99349469378709
C          10.89876344530746   -0.49680075755857   10.33605620761909
C          10.91062226704491   -0.29744713522829    8.98920900414703
C          10.72199483430052    0.92668974438439    8.31282786542072
C          10.84281196395044    2.19527788135150    8.81226272163759
C          10.73182961045987    3.38918142264589    8.04809614867445
C          10.96392986357922    4.53213315263269    8.74098020266494
C          11.25652867715589    4.32287146847256   10.11270416052034
S          11.25737374536024    2.60659380253988   10.47064704970194
C          11.46322298859848    5.26665921773158   11.08630465347597
C          11.45344546480030    6.68117554094075   10.93975262438828
C          11.66782153981860    7.36454304673169   12.08590879212800
C          11.86792242340511    6.53849975350877   13.24233168451872
S          11.75693928775338    4.83620614208828   12.76366052998214
C          12.10505664026062    6.93219898527867   14.50127258384558
H           8.37693274078688    6.15182790341192   10.49243103019582
H           7.94211482443797    5.70059658945945    8.76248928657843
H           8.47468380396352    4.19498243302116   12.28812370582186
H           8.08708735558866    1.65980718679999   12.45324233187335
H           7.32809116338417   -0.51927457464259   12.14381703817785
H           6.20986110622930   -2.66543386820911   11.27211223670006
H           4.89096132503804   -3.45890852949839    9.19851315751850
H           3.13955820944428   -2.65651375147736    4.30614856678272
H           5.04025807091274   -2.00820263560212    2.82068856328886
H           6.31345573769363   -3.17817450351295    3.15765297142888
H           6.55747208437467   -1.46850279964551    3.55432052212774
H           7.67310122283995   -2.73170297289386    7.35263460094750
H           8.14321612366654   -2.93949392300750    4.33953463225392
H           9.84378077637328   -3.33150421825506    6.86264538481127
H          10.38938463259334   -3.78866023069441    3.88300675700564
H          14.95017726760610   -6.04557288436813    4.87857997911838
H          11.20386865618145   -3.93894786017256    8.31778353191076
H          14.26567719122955   -6.58953960923283    8.10539613216957
H          15.15904434505825   -5.07265859404265    8.03751126191042
H          13.96941542621562   -5.68757980408950   13.43748230414664
H          12.98433226559004   -3.61512026165960   14.42638404715803
H          11.41822986334802   -3.32256942929866   13.66863174174999
H          12.76964811700797   -2.22706305713588   13.34789585200240
H          12.43668310584917   -2.41739510173574    9.41566535738846
H          10.91861063135459   -1.83588261292747   12.00049369979975
H          10.55344961219827    0.30236710622605   10.97807584206711
H          11.06831692573884   -1.15136586510571    8.34225236038482
H          10.52987466762121    0.86404788266498    7.24879126771027
H          10.48289633797330    3.35162902688106    7.00210543136321
H          10.93420682828241    5.51787844988506    8.31302808870570
H          11.28638258307648    7.14052490064796    9.98135800516638
H          11.69483350791250    8.43684154059108   12.16841698855389
H          12.16615566252108    7.97765978064810   14.74683511328953
H          12.24319628748717    6.22540139123713   15.29872627875848
