86
 SCF done       -157.696100546747          0.000604985901
C          -9.54501981999026  -11.64126951565251   -0.93561842312979
C          -8.91599500739615  -11.68834103811593    0.24518942068898
C          -9.46501734792022  -12.05274811117366    1.52117128689401
C          -8.58541499416278  -12.00817427448428    2.54391427182318
C          -7.27034061074926  -11.60600851635135    2.17056575003029
S          -7.20256804796084  -11.28695572882988    0.44604583020807
C          -6.17851774122606  -11.46905598532444    2.98722065380014
C          -6.09041726272119  -11.69812309946804    4.38558008877048
C          -4.86203480508694  -11.47879242786159    4.91604248317006
C          -3.88621385173068  -11.05600769941083    3.97216471602371
S          -4.61837505507416  -10.95512825578791    2.36484590512606
C          -2.57907136242910  -10.76476390580350    4.20486515286174
N          -1.73555823566954  -10.36333057800001    3.21457650818595
C          -0.42757285662724  -10.05262904486760    3.33634682893154
S           0.34776382105477  -10.02183544517234    4.89109473961315
C           1.80681701918162   -9.45259931069412    4.13620924933248
N           2.90868905436380   -9.23409410172825    4.95433970005108
O           3.93798615486040   -8.83441308055175    4.43371245161647
O           2.76036831186522   -9.46009097794622    6.14782923163561
C           1.68481733516989   -9.29307056014367    2.77914531653385
C           0.41956219876548   -9.65379026047895    2.29178198610633
C           0.09662384840961   -9.60028071013603    0.88115680235230
C          -0.79197212595817  -10.36560993635150    0.22983145759683
C          -1.10123978800099  -10.29820286024258   -1.18338553936578
C          -0.28454128458741  -10.00675536129078   -2.20202706832926
C           1.18424219207939   -9.74399039849115   -2.09278801473128
C          -0.80742503373571  -10.01913445274628   -3.61489391361501
N          -0.33497457649948  -11.21508844979376   -4.28270015391261
C          -0.33363335093707  -11.40641928245191   -5.61722733735303
C          -0.68009282820530  -10.49522924826003   -6.55867395162772
C          -0.59669049852953  -10.74068863270168   -7.95568327929076
S          -1.02989624846865   -9.48619223026815   -9.07848267281861
C          -0.66097598439235  -10.48698109280487  -10.46204968895750
C          -0.23822322395176  -11.74778848269685  -10.02865045282427
C          -0.20467154221563  -11.87966965009480   -8.63368243235963
C           0.07844125186010  -12.84272938345149  -10.85340422381645
N           0.32260396294990  -13.79730039034375  -11.44088641956067
C          -0.80827355654372   -9.95631497011283  -11.75680081643155
C          -0.40893756405670  -10.55152299919412  -12.91937194092713
C          -0.61707793715884   -9.92289865269608  -14.16070535641316
C          -0.18335407403008  -10.40285243091713  -15.36966212456588
C          -0.42160150680919   -9.81892520696127  -16.67191550026860
C          -1.09740301090089   -8.65591096978786  -16.95040431285353
C          -1.29272129392733   -8.14439924752128  -18.24941875751899
N          -1.48645734570782   -7.67155561820559  -19.27798736793008
C          -1.68628716277880   -7.79778397086196  -15.99991024788191
N          -2.19242914752200   -7.04286395288945  -15.29659532004129
C           0.19292194879999  -10.69107768077935  -17.66956529604209
C           0.81846983376347  -11.77330055621191  -17.00542869882904
C           0.62681617096320  -11.63082025423001  -15.54644991030367
O           1.07307378137329  -12.36531518335705  -14.69168491156520
C           1.48845035557505  -12.76837893151007  -17.67308153521187
C           1.54159929721027  -12.69545165836762  -19.06901019924445
C           0.91225353770694  -11.61204531896002  -19.72570010699424
C           0.23676959294331  -10.60394604540383  -19.04889604089684
S           1.09835433588218  -11.71586893802922  -21.45121375127973
C           2.00597777009258  -13.19326907827518  -21.26730740443935
C           2.16352637786915  -13.59023917958927  -19.98266436827787
Br          2.66113993120985  -14.07165493629559  -22.78984955853734
H         -10.58763518246211  -11.89430612133260   -1.01172030205116
H          -9.03686623604610  -11.35327287924981   -1.83757282286693
H         -10.49981318007082  -12.33197497854568    1.61052370044541
H          -8.82746717591113  -12.24846749121358    3.56399256075317
H          -6.94423869725472  -12.01998666874461    4.95378383988162
H          -4.61199967842718  -11.60190853124033    5.95444727928070
H          -2.15912973207160  -10.85527721041777    5.19506971073262
H          -2.14973211590085  -10.22533686264073    2.29798199815384
H           2.49863258913158   -8.94846254814052    2.16696469160445
H           0.66234430228624   -8.86361540175628    0.33073918093213
H          -1.35951364272433  -11.11967819103557    0.76145344865981
H          -2.12847260967800  -10.55588036508290   -1.41672329578636
H           1.60702961913261  -10.22532856503288   -1.21462269404744
H           1.37754860103587   -8.67318198822114   -2.02649041782802
H           1.69266827104111  -10.11402276505975   -2.98149736532397
H          -0.42362067758539   -9.14895278482991   -4.15594797126692
H          -1.90485450346393   -9.97832487854635   -3.62539398891598
H          -0.20364019914488  -12.01848193902635   -3.68934395238899
H           0.01297649855580  -12.38403821467739   -5.92098195810152
H          -1.03930909971433   -9.51942449113657   -6.27103246328145
H           0.09629510058850  -12.79136871256697   -8.14996798989396
H          -1.25704357286019   -8.97052237416786  -11.80897928912157
H           0.08497813222594  -11.51102588702908  -12.90431391127742
H          -1.17110801475235   -8.99276101695824  -14.14218644617105
H           1.95478397810981  -13.57826792765787  -17.13434726599777
H          -0.22508580110138   -9.80038860311078  -19.59748671472262
H           2.69555102672671  -14.47647434272358  -19.68845029455196
