83
 SCF done       -159.015356080429          0.000354424634
C          -9.92756810264342  -14.44521178440198   -4.79781223783835
C          -8.62826381736497  -14.52738375533006   -5.10986309646280
C          -8.04689599229638  -14.76820454408392   -6.40077246419479
C          -6.69770559567048  -14.80003478542843   -6.41050410396579
C          -6.09642489421578  -14.58808296858908   -5.13578518108657
S          -7.33326876118864  -14.34454913020934   -3.91592775805447
C          -4.75810215163392  -14.56776298899717   -4.84081419389624
C          -3.66229269825053  -14.76599840641605   -5.72146945557204
C          -2.44552950588448  -14.69789783333314   -5.12810121562729
C          -2.49323849514698  -14.43818492400980   -3.72913024086150
S          -4.17478418124009  -14.27329780223046   -3.20931144914572
C          -1.43276060826543  -14.32968980291475   -2.88722409013756
N          -1.55852187944363  -14.09246451290509   -1.54730999773152
C          -0.56100383978455  -13.83867545555112   -0.66220229735894
S          -0.83335886799559  -14.19006749047421    1.02009770160504
C           0.79876494491029  -13.70894870011377    1.37206769505347
N           1.21433597632597  -13.74831311799395    2.69940812543923
O           2.36200036089723  -13.41508985964667    2.94818688979167
O           0.39126943106531  -14.11870013215880    3.52497562477223
C           1.49431387066014  -13.30651517769881    0.26039943220627
C           0.73012429441355  -13.35611852650132   -0.91602568877830
C           1.17576931545030  -12.88145526575717   -2.20690992757402
C           2.45460833983084  -12.85895387012901   -2.61051494204632
C           2.90924858131585  -12.42871005531032   -3.90541696780194
C           4.21767864376566  -12.61179790497400   -4.30699944709801
O           5.18119303085138  -13.14267028016534   -3.53414602247119
S           4.55807645976825  -12.12154233605169   -5.95111853137569
C           2.90848026671864  -11.63609656413556   -6.14022406118194
C           2.16437403351398  -11.84534685676542   -4.97269468856615
N           0.87885909729041  -11.42574894088699   -5.18814583193166
C           0.79644667817948  -10.94539133000610   -6.46624533768929
C           2.04650592158326  -11.07589594421778   -7.08882613463577
S           1.99830112559381  -10.52201404815008   -8.72286649144077
C           0.29218219678876  -10.12372857447426   -8.53461096984370
C          -0.20570374731849  -10.40075717242961   -7.28990371217402
N          -0.34051372620622   -9.60720716201631   -9.63900206387208
C          -1.46867317119885   -8.86204427706631   -9.68941162115410
S          -2.22473212517556   -8.22281510547937   -8.26697480729908
C          -3.32323723148454   -7.31744350634778   -9.26919930716171
N          -4.28197795111359   -6.54565353103548   -8.62372910992009
O          -5.05895160365536   -5.90157735666133   -9.30992533389482
O          -4.27466608304014   -6.57155120880188   -7.39988848622787
C          -3.11302253746538   -7.51019254653399  -10.60920923802588
C          -2.07380608595964   -8.41792276430717  -10.87933977032372
C          -1.72362954268873   -8.83306566247410  -12.20861606179607
C          -1.13758443448330  -10.00971082560080  -12.54297560265635
C          -0.81053473848337  -10.39784913432968  -13.86021527802010
C          -0.24587462175553  -11.60559505669483  -14.16173136570160
C           0.10643996808751  -12.10169919185082  -15.44555079102406
C           0.64497437097152  -13.34755323236212  -15.43881688798118
C           0.76025132091133  -13.92351367466122  -14.14728448157005
S           0.15580677471014  -12.80780554218729  -12.93676154083808
C           1.25130178719513  -15.15969573761678  -13.81061852580338
C           1.75431791422960  -16.16168990688889  -14.68877067919295
C           2.16522194147295  -17.28950977865724  -14.07027479081655
C           2.02186699371097  -17.27094568654733  -12.64192268407295
S           1.32706423020161  -15.71790235825944  -12.14953754904199
C           2.34263957350931  -18.23773788031620  -11.77243207028831
H         -10.68224385548325  -14.56277060953760   -5.55527558951994
H         -10.25776116300558  -14.25973853445163   -3.79222443763553
H          -8.67269560334815  -14.90604984512733   -7.26465869235267
H          -6.10044452785991  -14.96744321814398   -7.28932774518750
H          -3.81255431936659  -14.95606323872113   -6.76881511984658
H          -1.50698511308220  -14.82388745796757   -5.63836471682242
H          -0.43063826689565  -14.46281944944431   -3.26333430521998
H          -2.49174753383250  -14.20227648513179   -1.16622025113056
H           2.50742604079829  -12.95303887949442    0.31522870103022
H           0.39404215789404  -12.52721661068288   -2.86184358124986
H           3.23314530033315  -13.24160359396440   -1.96719390836331
H           6.02397138999957  -13.16919910011156   -4.00146327045859
H           0.14209458720123  -11.37780407062829   -4.50632872965620
H          -1.22600224227051  -10.25316052730753   -6.99328404379969
H           0.16965488286158   -9.68075050095011  -10.51236124984064
H          -3.71044499817863   -7.02944609435605  -11.36248468517596
H          -2.01709221966197   -8.15442829083988  -12.99827317374823
H          -0.94134951669507  -10.75541023427090  -11.78282155438226
H          -1.01271527005822   -9.71204751780269  -14.67127371834827
H          -0.05739490858692  -11.51336515834910  -16.33129977103367
H           0.96430329334223  -13.87321395619942  -16.32086813666232
H           1.78937121494891  -16.00577666040961  -15.75245637439954
H           2.57104364380460  -18.15229761393317  -14.56798424364757
H           2.76268716077684  -19.16676990367915  -12.11505845550757
H           2.19339941355878  -18.11995047923349  -10.71486383237154
