96
 SCF done       -155.577848132760          0.000924832712
C           6.15865717109887    1.54763845896256   -3.85033914143960
C           5.04317945924650    1.12584649546276   -3.23846669423984
C           3.78540037085142    1.80774904432054   -3.13366379205047
C           2.83686869176779    1.12830625165087   -2.45071851840430
C           3.26118998251967   -0.13805627998853   -1.96233556740890
S           4.92873985585033   -0.43450536788812   -2.40925304361248
C           2.52259467185507   -1.04738680997665   -1.24058765752622
C           1.18162661733446   -0.94255555664977   -0.80389977738202
C           0.74443428918835   -2.02554202077761   -0.10709719100788
C           1.70702815805468   -3.05524277477754    0.06159252272228
S           3.20410277996625   -2.57742321644513   -0.72013451918242
C           1.42512565285619   -4.26660209870447    0.65027867809827
C           2.21096639857849   -5.40384397246789    0.88121646911674
S           1.33926961086768   -6.90925401468137    1.05361309862397
C           2.78188524878154   -7.86566812241084    1.16036422627507
C           3.91272693045406   -7.03162421397723    1.12219091171324
C           3.59726308371296   -5.64244269280738    0.99518720577203
C           4.63015184698980   -4.69527918054947    1.09822270363934
C           5.92117199446994   -5.12223210569217    1.23134357665646
F           6.91330372535452   -4.22140772499722    1.33854340340369
C           6.23650066178808   -6.49590155961692    1.28007180316921
F           7.52301567274798   -6.87028033362029    1.39732348472770
C           5.25388364565057   -7.44216875124348    1.23985320006700
C           2.75059072464520   -9.26903972276096    1.27280091135713
C           1.62301316387258  -10.01842854540794    1.37409692205261
C           1.61038679121181  -11.43289859907726    1.47255756202615
S           3.08328561734266  -12.36811773816221    1.36520423193825
C           2.21512826468850  -13.83078469777579    1.58233996120023
C           0.87403952282042  -13.62937478170625    1.72565739532359
C           0.51986662220092  -12.26269660774149    1.66006438748647
C          -0.88548412579029  -11.78423632192105    1.84458809927132
C          -1.89405227238419  -12.93214325382767    1.74203711351555
C          -1.41442469908118  -14.16117402664242    2.54618968970151
O          -2.47238626287339  -15.10120967141231    2.51628513156780
C          -2.43085503061002  -16.06976439556683    3.53189389336496
C          -0.13109741069936  -14.71833032474416    1.92142744948085
N          -3.21915101953129  -12.51047032073363    2.15619336297276
C          -3.46877255624463  -12.15982451301494    3.46144290267379
C          -4.64617932100671  -12.31227952341226    4.08940535917575
C          -4.85977976765330  -11.84145877597368    5.42835041075527
C          -5.95116353173960  -12.00952391419866    6.18854187807675
C          -7.20007233516518  -12.71538480887312    5.75221441148699
C          -5.98551152640897  -11.46336368765254    7.59557722594040
N          -6.94687941554208  -10.39122942022352    7.74497492597922
C          -8.19398921455837  -10.59144252583291    8.25166907810248
C          -9.24353712447977   -9.76419186464573    8.07326097497192
C         -10.46446164423785   -9.95385580655882    8.72051648766830
C         -11.53202714735375  -10.09169546596207    9.27882878972658
C         -12.74519222863170  -10.25308054485122    9.94579845184586
N         -12.91160729313056  -11.15973183544367   10.95223254173813
C         -14.19175474684152  -11.08679569321433   11.43237638137301
C         -14.85489265954871  -10.10740985421780   10.70513739592161
C         -13.95314749706111   -9.58740206069994    9.77672298791327
C         -14.64596839866365  -11.88960860172827   12.47560501147674
C         -15.04431659706697  -12.58010047477633   13.38813748154092
C         -15.48339481128620  -13.38590420599948   14.44756460432841
C         -16.70168213957676  -13.31293909162061   14.98204582151642
H           6.18676968356121    2.50293319942131   -4.34394428020321
H           7.05339611748696    0.95298560124381   -3.86702749333393
H           3.64990889348590    2.77896331119680   -3.57539864739701
H           1.83876852602048    1.48930910485770   -2.27591614906716
H           0.57979745825863   -0.07764001543409   -1.01736692073610
H          -0.24772239140826   -2.12364232153738    0.29780235934245
H           0.37680414074918   -4.40091372132274    0.89650140563208
H           4.42651051634554   -3.63945951358790    1.10152860438048
H           5.51517103277867   -8.48484357095782    1.31356839537764
H           3.70756956048358   -9.77311406851628    1.27822421176835
H           0.66081272972360   -9.52372230405801    1.39013033635681
H           2.74645840315451  -14.76166030183462    1.59104407574603
H          -1.13586624443293  -11.02621274853338    1.09931710367086
H          -0.96509125661685  -11.30875465568164    2.82602901115809
H          -1.97805772000796  -13.23887366833749    0.69392159136717
H          -1.22183236245442  -13.85658706040662    3.58787144990205
H          -3.34199079597160  -16.65605470139952    3.42975361485455
H          -2.41009576052953  -15.60095198448724    4.52337917882036
H          -1.56464848088021  -16.73302204247424    3.43316894805894
H          -0.39062228729081  -15.16413654763037    0.95569945380270
H           0.29182037481355  -15.50742554560362    2.54678271316406
H          -3.94521236253050  -13.09928889391808    1.76968521927440
H          -2.64964654029943  -11.67518121764429    3.97541418002096
H          -5.45579387250393  -12.81371144593072    3.57991954991049
H          -4.01703866740623  -11.31452758264085    5.86295457920606
H          -7.33106825431826  -12.67023470668804    4.67479167965890
H          -8.07410835052857  -12.26804536913841    6.22446131571318
H          -7.16328019374559  -13.76580110831662    6.04718686691719
H          -4.99614196836099  -11.08034252310217    7.87057432270421
H          -6.25752781372685  -12.25381995939502    8.30191623705790
H          -6.86061091247306   -9.65081276767430    7.06212757591546
H          -8.28888321561261  -11.45631225427345    8.89609558174171
H          -9.16260596693695   -8.90020882846594    7.42551477035157
H         -12.19970591778650  -11.78382414631627   11.29376933420930
H         -15.87717279584513   -9.81440274332224   10.84399137895706
H         -14.14243888941006   -8.81412276717990    9.05828823240389
H         -14.75387115464125  -14.09435778620571   14.82462547889643
H         -17.43592458680473  -12.61463967678728   14.61705018158926
H         -16.99731512358820  -13.95100444491017   15.79699993748037
