92
 SCF done       -171.881678834610          0.000360376000
C           2.58244485512484  -20.15186149525978  -13.21455854233112
C           3.22943198544145  -19.16360558323071  -13.84473867686943
C           3.70961020239323  -19.14835072344480  -15.19806020049228
C           4.32173972161032  -18.00205059672873  -15.56300485852862
C           4.38097898403634  -17.01573607395237  -14.53645127471009
S           3.62122519460360  -17.61805635590612  -13.07396837633947
C           4.92773845951279  -15.76147600158003  -14.61776445716569
C           5.55054254735655  -15.14224052739377  -15.73271712645965
C           5.97935832893905  -13.87556163632376  -15.50674110333165
C           5.72935642649489  -13.40129646465986  -14.19020481240188
S           4.91726162876700  -14.66022523709470  -13.24972142926132
C           6.03932753133107  -12.18124502327622  -13.67627993786628
N           5.76568214287666  -11.84084648834451  -12.38714225945953
C           6.00348746649132  -10.65125218949072  -11.79439709001447
S           6.67615077222272   -9.32857551569874  -12.68879817622494
C           6.61952333497405   -8.35441843335532  -11.24941701646113
N           7.09834947249828   -7.06465586813359  -11.37893644961143
O           7.13358846626775   -6.35354352355855  -10.38214025092640
O           7.45617113874500   -6.71609602251742  -12.49814038647490
C           6.10100318043505   -9.00802185456406  -10.15800203429490
C           5.73423762044952  -10.33189926486297  -10.45074020382920
C           5.08539378771162  -11.24516816334838   -9.54830378970216
C           4.66305408355040  -10.92281306494534   -8.31434977255828
N           3.93459619674560  -11.79869582097705   -7.54519840185380
C           3.09756810066190  -11.46042247507204   -6.52778865490280
S           2.68132365679192  -12.68943827452026   -5.37052351871957
C           1.77951172720644  -11.51810735980484   -4.45750841901055
N           1.11658618092433  -11.96431265670384   -3.31520166381667
O           0.47393228594755  -11.15328760311433   -2.67261768722818
O           1.22885570323733  -13.15094149896522   -3.04431448501050
C           1.81780162816440  -10.26673902509936   -5.01296651535967
C           2.53841174527715  -10.21548990891845   -6.22047738527623
C           2.62577884918435   -8.99891234300104   -7.00058681463830
C           2.62038297617023   -8.93412408596588   -8.34502486781803
C           2.85675474532463   -7.74726722970846   -9.10174466330444
S           2.43894129386855   -7.70361126498897  -10.78894913265863
C           3.04110840713962   -6.07357475644191  -10.96183183768024
C           3.54070033258407   -5.60380342217499   -9.75780806099520
C           3.44348152189835   -6.55607059864068   -8.72941529323877
S           4.37072361677750   -6.36303658808911   -7.21389560667697
O           5.29017956949848   -7.47898435938360   -7.20466315895661
O           3.49452897386313   -6.25020081454483   -6.07335961442406
C           5.25411208813497   -4.77789290580981   -7.33969972844701
C           5.44864513669021   -4.33426399968674   -8.77272423527123
C           4.11891609218768   -4.24604751322668   -9.52514190535272
C           2.99013889320394   -5.38679232381500  -12.20296650378834
C           2.54972750326050   -5.92295027190713  -13.36014178526573
C           2.46372179963966   -5.20903614812206  -14.58987007277404
S           2.42236251148955   -6.08957089135221  -16.08351587699742
C           2.32376505085287   -4.62811155893424  -17.02561551208555
C           2.32567628298218   -3.51438592667046  -16.20616183957935
C           2.40094643395228   -3.85436823473095  -14.84001541774694
S           2.22559079103934   -2.63121170450460  -13.54793400399589
O           3.50796577990296   -2.36387165770430  -12.94371803370631
O           1.16339315467361   -3.03637792428426  -12.66642465546819
C           1.73017283505406   -1.14744801083384  -14.46839697811336
C           2.66397918243376   -1.07090939805222  -15.65644798745753
C           2.28593006110066   -2.10518107111391  -16.71298272007204
C           2.26810377324802   -4.78028966355324  -18.45655849480350
C           1.92152548805367   -3.87615330172047  -19.37048469300829
H           2.36370943881246  -21.07480582179812  -13.72185284746002
H           2.26237745367384  -20.05870762245491  -12.19300458951158
H           3.57114413856171  -20.00289596707097  -15.83632319611902
H           4.73959352033243  -17.82012193570049  -16.53729802182755
H           5.65757950425092  -15.65739804770944  -16.67005957628352
H           6.46935971067606  -13.25528027728043  -16.23550350528326
H           6.52234127086443  -11.43132817356820  -14.28361847122645
H           5.33679793160845  -12.56551860519418  -11.82244179336430
H           5.99953943277357   -8.53479899546132   -9.19572893090756
H           4.86644151774326  -12.23895175274253   -9.92031747785525
H           4.85028003241108   -9.95810075388114   -7.87118117336106
H           3.97461369920083  -12.77998806832971   -7.79020522551154
H           1.31316171577597   -9.42197633571834   -4.58009285476593
H           2.66803859019197   -8.09250605775162   -6.41728711990401
H           2.43745105132629   -9.82213632739219   -8.93648266829341
H           6.19956705939870   -4.93719247212876   -6.82748515688067
H           4.63376735217495   -4.08657161839651   -6.77317202451026
H           5.92554300922540   -3.35180005285213   -8.77567025685680
H           6.11502904604362   -5.02760317322953   -9.28615019433617
H           4.27026625108188   -3.73235222950393  -10.47371596034526
H           3.40492465567809   -3.65582294315791   -8.94099958514678
H           3.34655746045784   -4.37061180951373  -12.19299951713331
H           2.26153220711854   -6.96668408150251  -13.39525073121193
H           1.84899528683682   -0.31276120579886  -13.78301990542334
H           0.68594529840891   -1.26329899474878  -14.74488396555936
H           2.63542331515660   -0.07520560210152  -16.10463229327359
H           3.67974522531983   -1.25422908668846  -15.29799766356679
H           2.96956416011369   -2.02299224655672  -17.56194285291372
H           1.27662876216734   -1.88581664672478  -17.07809308341090
H           2.52535160175110   -5.77835724147312  -18.78945356100208
H           1.60908887781812   -2.87707434613625  -19.13274897107878
H           1.92324372197304   -4.13474280772944  -20.41511237472115
