94
 SCF done       -174.684135155999          0.000239953403
C           6.56802811795261   -0.78390192475797   -8.31673259649901
C           6.03811707270900   -0.67352080215099   -7.08995490188622
C           5.62908678104376    0.52173182305833   -6.41199873886474
C           5.12026213759103    0.31531297414769   -5.17550136964835
C           5.08775653395386   -1.04819852808584   -4.77710465745177
S           5.73368638813668   -2.06882098698160   -6.04266562650853
C           4.61911718123169   -1.56076949625362   -3.58555474044680
C           4.05921824849512   -0.86420420252066   -2.49297207247082
C           3.66870716569226   -1.67353161347467   -1.46829187843208
C           3.90670762855160   -3.05262015602653   -1.67901766524239
S           4.65000774502150   -3.28078696971990   -3.24997570824018
C           3.47234030120352   -4.04429162013897   -0.82013793776586
C           3.61308642889841   -5.43067469265993   -0.86450952185759
S           2.40181594389730   -6.36311912086908   -0.01554675875467
C           3.03121641017259   -7.88996116387845   -0.56839139239863
C           4.20736585284888   -7.67664366184762   -1.32884211557378
C           4.54859248388810   -6.30256015930507   -1.47818534475787
C           5.76533787681088   -5.96257851078623   -2.08757050548626
C           6.55516756436709   -6.95656811970054   -2.59966377039453
F           7.72542695314406   -6.63858737219514   -3.17907264802456
C           6.17547364761147   -8.30928184268172   -2.51661749126485
F           6.97771987298246   -9.24520082576943   -3.04883991159420
C           5.02201982964626   -8.67814450619558   -1.87830581644523
C           2.42503498817335   -9.11048893792307   -0.30254262160776
C           1.25939851932971   -9.28857193761679    0.40723779290998
C           0.68350278745762  -10.55167787504211    0.55844803833158
N          -0.51019282142209  -10.78916756496539    1.21228715344502
C          -1.31943466757093   -9.79862123773656    1.86703949203971
C          -0.88752046770522  -12.13290834746103    1.15855029427492
O          -1.91117578410307  -12.56739273449058    1.66239978089852
C           0.17309250390601  -12.77516445509868    0.41686050059879
C           1.12328534494829  -11.79542509453473    0.07174378351518
C           2.18217630885612  -12.43739487677405   -0.67301645113216
O           3.20873732682178  -12.00423491920397   -1.17233536281939
N           1.79919190670168  -13.77857278257542   -0.73688505319339
C           2.59939606437755  -14.76567556081304   -1.40769954785712
C           0.59165445794338  -14.01122859613823   -0.10679277838975
C          -0.05662299296522  -15.24727079856034   -0.08727361061511
C          -1.28164878029192  -15.41191296586857    0.51881581186331
C          -2.03774591737622  -16.57613663025354    0.49745482718166
S          -1.54097130706308  -18.02457331934265   -0.33320692772937
C          -3.04064920636624  -18.85622939741038   -0.00933076904717
C          -3.87414026410672  -18.05213340447748    0.81202128839209
C          -3.31604386844985  -16.76972787844917    1.07831032859650
C          -4.01120597225627  -15.83577349302469    1.86074125869105
C          -5.22034786622158  -16.19545379536905    2.39291316482139
F          -5.90703786572511  -15.32538206430553    3.15071783109381
C          -5.74993439409626  -17.48128857539394    2.17978923847230
F          -6.91675311971927  -17.81475439500768    2.75899785056737
C          -5.09647753992883  -18.40310122604960    1.40532985873411
C          -3.22865283934012  -20.10141289337605   -0.60753158944462
C          -4.41741732404486  -20.77641923774375   -0.78464969462091
C          -4.50504403653021  -22.00540998242559   -1.42810656388048
C          -5.69469826626584  -22.65037301536483   -1.70936737763322
C          -5.85640797631128  -23.88410266138048   -2.37436444692846
C          -7.15543099973302  -24.26660687749605   -2.54222878353183
C          -8.09255402710971  -23.35134608194302   -2.01561093646197
S          -7.26390076847751  -21.99005088802416   -1.28939515028205
C          -9.46970774905292  -23.43550012926977   -2.04001496696995
C         -10.25964185314293  -24.46936355121078   -2.61015330587380
C         -11.59437684813303  -24.27839745016563   -2.49532694122956
C         -11.96205928822284  -23.06913259578100   -1.81901524420106
S         -10.49417162626325  -22.20089886347677   -1.34244487655936
C         -13.19613705378342  -22.61301849645666   -1.55946252084168
H           6.73489841092050    0.08884445098343   -8.92301628378783
H           6.84009762600325   -1.73709029201851   -8.73124033050259
H           5.73491912702617    1.48321860191233   -6.88201730334691
H           4.76516231189657    1.09699206979259   -4.52763849412304
H           3.95190989212202    0.20536917657240   -2.49223068905366
H           3.21495471986066   -1.32019100601304   -0.55892473073443
H           2.82483796145863   -3.68581435237421   -0.02673004600031
H           6.10688548975617   -4.94408047428685   -2.13999178886931
H           4.76459402336272   -9.72179870578423   -1.79406949839369
H           2.90491788710055   -9.98663853047717   -0.71551438513342
H           0.76108639497374   -8.43010022534449    0.83672374614920
H          -1.66106257090624   -9.04077753469778    1.15860553885715
H          -0.76770458710890   -9.31578694730864    2.67620974156846
H          -2.18364923710255  -10.31871152890183    2.28059958741444
H           3.49027462903382  -14.25528800924639   -1.77409810386416
H           2.06092172800929  -15.19959897221739   -2.25310160953767
H           2.89566789201360  -15.56047115970491   -0.72013330338093
H           0.40447039337820  -16.08722604916881   -0.58895142662603
H          -1.71300951154009  -14.56249779804327    1.02978447100404
H          -3.60964197322615  -14.85404484441166    2.05401016059767
H          -5.52224105778433  -19.38547509172842    1.29780283441822
H          -2.34212071981193  -20.54233275656775   -1.04861472468244
H          -5.34627521897941  -20.32213465055233   -0.47396240922524
H          -3.59329243855544  -22.49484735398402   -1.74542758850064
H          -5.00834179434981  -24.45273291892039   -2.71365957328636
H          -7.45876130174029  -25.17550725581513   -3.02980910915938
H          -9.80860570475940  -25.32040475417877   -3.08887639329306
H         -12.34694405533931  -24.95093546263084   -2.86669810776971
H         -14.06329958019969  -23.17060852051516   -1.86628780431835
H         -13.35847361800032  -21.68580203756158   -1.04136198003260
