89
 SCF done       -147.954192974448          0.000449126194
C           6.32774967674045  -11.26340557710057    3.42061108002707
C           6.82418916542072  -11.66756375810014    2.24418733114088
C           7.55639682130435  -12.87000623800554    1.96372444010844
C           7.92990065726914  -13.01284654996086    0.67376292792738
C           7.52986154961478  -11.94526446339533   -0.17749633163198
S           6.64871529114116  -10.73552371919547    0.74941791356038
C           7.75575345939320  -11.81555417915573   -1.52144664895702
C           8.43780961048225  -12.70850448119591   -2.39136359586942
C           8.48983971747976  -12.30594659520196   -3.68435176715718
C           7.84862989232611  -11.06250811043728   -3.93779297967264
S           7.18124930591940  -10.42239733938728   -2.42279232825535
C           7.72058816341987  -10.42123132726040   -5.12671525932941
N           7.08444855445215   -9.22636091579274   -5.25740394243783
C           6.79451516165033   -8.57725860692033   -6.43607969826258
C           7.11409600754942   -8.99586886986488   -7.69560190368204
S           6.50599511028186   -7.93625457345453   -8.90658282885481
C           5.82613476533719   -6.89780303583884   -7.71969772912277
C           6.05688638160632   -7.34143266673728   -6.45019880789405
N           5.63864061009963   -6.70940772403677   -5.29147517740857
C           4.55850128599830   -5.87607475717413   -5.22608272636337
C           4.34279392503206   -4.99624035702847   -4.22037599743104
C           3.17074671923765   -4.22133507399067   -4.03229347584657
C           1.92846699704183   -4.42184298721006   -4.56990297411299
C           0.76613570776155   -3.65133381627410   -4.30045145774383
C          -0.38502174903194   -4.14138602375306   -4.83817365663598
C          -0.21188536534968   -5.33056442310520   -5.57747700776548
S           1.48543677947145   -5.77568968079652   -5.60584857893110
C          -1.15416758951400   -6.13168141670725   -6.18769127451701
C          -2.55246994062604   -5.98493028921786   -6.28486227825540
C          -3.18201036691285   -7.02272083316657   -6.90959242780867
C          -2.32828200636852   -8.06134422543700   -7.34881679072780
S          -0.66530046585207   -7.63060194517448   -6.95271940743186
C          -2.70811578995960   -9.24116973384105   -7.94616650404737
C          -1.88406418327811  -10.29410559531676   -8.35608247662673
N          -0.51733313821411  -10.32089767253726   -8.30812461959858
C           0.02330915665339  -11.49182321689467   -8.74805356862504
C          -1.06763744479186  -12.31050622397063   -9.11815954452577
C          -2.26751630357612  -11.55633652604441   -8.87894360603488
N          -3.48004932410120  -12.05585207943126   -9.12845851390297
C          -3.48585751420438  -13.28152495635132   -9.60684856222493
C          -2.31169448676539  -14.02218473422932   -9.84196240598613
N          -1.10503398734638  -13.55733057851859   -9.60570949514672
C           1.42235011781119  -11.69259765636798   -8.77842731703878
C           2.01875432346892  -12.85439568657296   -9.13987738397658
C           3.42644888684820  -13.08644083683802   -9.19357147513930
C           4.48017745395949  -12.18431542306274   -9.35405157473469
C           4.34718155937325  -10.72574831806300   -9.60939181784491
C           5.74052545817313  -12.87191902378211   -9.30345599457757
C           5.45294225557943  -14.21161770222044   -9.12379412883733
C           4.00539177613978  -14.38954116715765   -9.07864418431861
C           3.50436333735691  -15.65194137631022   -8.93495526653943
C           4.42515895800903  -16.72078229733019   -8.84620962597404
C           5.76386100994001  -16.46910544981609   -8.89373390034572
O           6.28975191107400  -15.25720279314266   -9.02406367709924
C           7.04122366520703  -12.25977991111615   -9.43435291011602
C           8.20195546528373  -12.84341896587184   -9.14800506963947
H           6.45557126951351  -11.86229684805293    4.30484143170908
H           5.78831993282683  -10.33945909785388    3.51960675792945
H           7.76879963047671  -13.57528246265758    2.74781958075659
H           8.48341694055131  -13.85300134274090    0.29202935365659
H           8.86531973652008  -13.62469631898892   -2.02530797026532
H           8.96087977370927  -12.85687499149145   -4.47931956803288
H           8.13806289290249  -10.85339868829076   -6.02205667237630
H           6.64933725431153   -8.86714875648252   -4.41746867987107
H           7.64440908078111   -9.87712676665469   -7.98898163357577
H           5.30584737514008   -6.01330070200434   -8.02414806550536
H           6.26258122826468   -6.72267858541273   -4.49619761439326
H           3.87205120694788   -5.97921885137930   -6.05059967064516
H           5.12484416416874   -4.85855670960751   -3.48316903839621
H           3.24839814395649   -3.40260268354179   -3.32819365208526
H           0.81996623623717   -2.76451577194220   -3.69290170910013
H          -1.35496847593883   -3.69563064037295   -4.70497439037176
H          -3.05708938614861   -5.12373409640142   -5.88406902824326
H          -4.24568940637004   -7.08031411112514   -7.06147567193973
H          -3.76556255988681   -9.40099466448301   -8.10148069929070
H           0.04537746066900   -9.55178336863168   -7.97969244188153
H          -4.45760166768968  -13.70784909763172   -9.81601691155871
H          -2.36642398824569  -15.02836419744597  -10.23586234628252
H           2.01427293054879  -10.85164878483792   -8.44704607611513
H           1.37791782452745  -13.69313765892157   -9.37439497048566
H           3.41612417990571  -10.51861223259431  -10.13208212531771
H           5.17323913271159  -10.35838437758487  -10.21401837399580
H           4.34979738310159  -10.16726645105292   -8.67193314416715
H           2.44371399512687  -15.84508479656414   -8.89525072330060
H           4.07975183832233  -17.73476338276180   -8.73945319274167
H           6.51744361441636  -17.24016496338902   -8.82747807754646
H           7.03855186566288  -11.24110389463079   -9.80004245557598
H           8.25915520754131  -13.85215555906819   -8.77806869511831
H           9.13834819030727  -12.32784666046442   -9.28137654395808
