86
 SCF done       -154.184479668000          0.000995988811
C          -1.62365029573482   -6.32577389151205   -5.75560292188881
C          -1.50015181069661   -4.99324016397385   -5.68388895305645
C          -2.11853275272789   -4.00713070560298   -6.52366603713434
C          -1.80797241116405   -2.73065057085713   -6.20634894692843
C          -0.92509954068014   -2.60140936049885   -5.09703109794889
S          -0.49791605876977   -4.17824805766872   -4.47079457451985
C          -0.43852369223166   -1.43735514097630   -4.54829747723111
C          -0.66915908549629   -0.10561065257103   -4.97048681900827
C          -0.02409272872457    0.82606005308234   -4.22049191931724
C           0.76738717785992    0.28956992108788   -3.16948924557544
S           0.62564211297359   -1.45303041278915   -3.15549030151207
C           1.43697084411995    1.03356371666566   -2.22832674314195
C           2.27178033789279    0.56680712353622   -1.19171740234297
C           3.11735178021772   -0.53215230150463   -1.20957921499416
C           3.82424221035948   -1.06106854264246   -0.02415726448275
C           3.73343911499519   -0.45596753645930    1.24967620511002
C           3.08586096662707    0.70866997536632    1.44735843113174
S           2.20512308728255    1.57784442459893    0.24426670830755
N           4.58396067973734   -2.10039156757953   -0.29923773682831
C           4.48814243706883   -2.29329134382123   -1.64364202435454
C           3.59784203790855   -1.35313839642412   -2.23936787916802
S           3.56380724101322   -1.51604700374706   -3.94756113948621
C           4.70220182307368   -2.86822189985543   -3.86748135610191
C           5.08797978000268   -3.14724199655504   -2.55846070660311
C           5.06355342120247   -3.46375202842729   -5.07982059524940
C           5.88190314972366   -4.55006091646638   -5.29506643442997
C           6.19392377550354   -5.08739337647056   -6.56495050209312
C           7.00343461729470   -6.18564753271854   -6.53093374649191
C           7.37229468905908   -6.57763855537514   -5.22939659851352
S           6.67133348332920   -5.49836130984655   -4.04857596169435
C           8.15537575229921   -7.65962388624235   -4.85461953689814
C           8.75714775154242   -8.62442976820215   -5.68215165497200
C           9.44079836815303   -9.58704206836371   -4.99496616389710
C           9.41515258471328   -9.42992818534236   -3.59124481348307
S           8.49822989680867   -8.00347889940577   -3.17130063653604
C          10.01127487214497  -10.29463581991535   -2.69436312911014
C          10.03920738644666  -10.23815955302543   -1.29866209535962
C          10.64934670118428  -11.24171629690941   -0.54250459353705
C          10.72837072777202  -11.28377094103230    0.92644420865693
C          10.18453162258855  -10.26127172274660    1.73442791655914
C           9.55084344866409   -9.19509148420545    1.20654341046663
S           9.29226397382932   -8.88801098361677   -0.47535515664844
N          11.34557353969647  -12.35968815063084    1.37886922686244
C          11.70269205890341  -13.07573489268651    0.27796414119603
C          11.29615780471914  -12.41878419395138   -0.91967045064175
S          11.74355982082956  -13.31421418964836   -2.31808114454251
C          12.46724598846910  -14.57430292925491   -1.30479087879350
C          12.35417786685911  -14.28223283976896    0.05018253577836
C          13.04179216982672  -15.66811293640028   -1.96451283303192
C          13.62544237531458  -16.78666050273625   -1.42146121348393
C          14.18953185906595  -17.84833110158625   -2.17373991223267
C          14.70177598835295  -18.86265618617801   -1.42702761927192
C          14.57035714765890  -18.66851631757784   -0.03131939596226
S          13.77994982460694  -17.13681907254179    0.29074480017347
C          14.96956756552824  -19.50998710066446    0.98176310906961
C          15.62135745062390  -20.76683571463116    0.85417420446393
C          15.88627697441121  -21.38066114624220    2.02951462012067
C          15.45976536754261  -20.65087529655674    3.18789284573453
S          14.71006628767985  -19.13151589598308    2.67305126435243
C          15.57884313493697  -21.00843788906663    4.47435531139729
H          -2.24389232875373   -6.78002459724676   -6.50828501951204
H          -1.11154582966957   -6.97882475531939   -5.07245089582388
H          -2.76896487686700   -4.30158788915995   -7.32819289241870
H          -2.18233389627755   -1.86695859556993   -6.72706463105154
H          -1.29655427700943    0.12414506357252   -5.81286998949404
H          -0.07433508819820    1.88721814313918   -4.39043295472667
H           1.21039771448789    2.09347283313527   -2.21249701752683
H           4.25279582422888   -0.93284189911210    2.06687991255278
H           3.05652888597895    1.20559345724035    2.40317228651911
H           5.78153575029884   -3.92224929998968   -2.29344295942266
H           4.63586361678445   -3.01677086696998   -5.96925955229067
H           5.80788373550295   -4.64628707680268   -7.46726036578437
H           7.33578522825580   -6.71911558358771   -7.40312081466313
H           8.67114465093147   -8.59406004839228   -6.75348220284614
H           9.96065749666988  -10.40924540961157   -5.45398835832347
H          10.52030186496061  -11.14279253039000   -3.13496050814307
H          10.28666777918558  -10.35696478371968    2.80478365313789
H           9.12943142487494   -8.41103270438154    1.81429304783358
H          12.73214159075405  -14.91813232270745    0.82792209186336
H          13.01776998052289  -15.62995176153210   -3.04709984503290
H          14.19513372638511  -17.82341403538024   -3.24963939828089
H          15.16367085709946  -19.74226545405177   -1.83784679820955
H          15.87347915174383  -21.17047668494693   -0.11026002827833
H          16.37372758828273  -22.33418070749779    2.13047205435203
H          16.04072390709977  -21.94160119512946    4.74438434975746
H          15.21827282027699  -20.38328728026282    5.27006272473491
