74
 SCF done       -151.010479604988          0.000312943067
C          -3.52604315619824    0.30671266985307   -1.48449665690124
C          -3.30181704719092   -0.92557133369648   -1.01572021245916
C          -4.26615976101151   -1.95222820371528   -0.73654745820480
C          -3.74027715687770   -3.10775998128462   -0.28350170269574
C          -2.31868735324065   -3.09569400284691   -0.16323660708084
S          -1.68312171904169   -1.53534441338324   -0.64194194604924
C          -1.50787891135519   -4.12652553511620    0.23005356099064
C          -1.86868191733664   -5.45410542204446    0.58132929806983
C          -0.82374095973800   -6.26346663984141    0.87949216330404
C           0.45015014574433   -5.63258569078902    0.78976131508237
S           0.24469318276603   -3.94063318218921    0.31144189214113
C           1.66751706645636   -6.19718728858023    0.97879460883033
N           2.85042688351619   -5.50190937982794    0.92165777241422
C           4.03319926621737   -6.06936550493962    0.55618566579554
S           5.51934880098516   -5.55577223878289    1.29718565099784
C           6.35947336829093   -6.82283321945791    0.45514290728961
N           7.74094228675516   -6.91155028401961    0.63546262855475
O           8.33552552387092   -7.79998382673151    0.05170373927139
O           8.25216353903225   -6.08378353352537    1.37378143150580
C           5.54135540620919   -7.58548329581713   -0.33657445376874
C           4.20491841132551   -7.14911403997449   -0.32034998197539
C           3.17780744498288   -7.67777279207393   -1.18697349107449
C           2.17334196510896   -6.92678671277543   -1.68512320190208
C           1.08611797989434   -7.40669776863256   -2.45927331879645
S           0.93539743321597   -9.05726081413393   -3.00617772025799
C          -0.61595819592523   -8.78770681860961   -3.76436844218856
C          -1.00495766531244   -7.45827750769456   -3.57711635238636
C          -0.03763505310635   -6.70039590748205   -2.85375043436382
N          -0.50182531174559   -5.42942647873197   -2.71615094072929
C          -1.73762808519820   -5.35986782599074   -3.32415336077278
C          -2.49268006301744   -4.18126719379537   -3.35424479820450
N          -3.13069625175541   -3.22726642296804   -3.38607438663278
C          -2.07748127663118   -6.58354979255599   -3.86589096469597
C          -1.29975681342576   -9.80062289033524   -4.46966741122282
C          -0.91735228020244  -11.11979372189813   -4.70530531330946
C           0.26614017356459  -11.66142935183868   -4.18721457666880
N           1.23452739721494  -12.08525372659290   -3.73950508880909
C          -1.86102872171855  -11.82941707989839   -5.49982922808940
C          -2.94515581040254  -11.02668329259561   -5.83221254132287
S          -2.84555559940442   -9.42376710561477   -5.21211753100605
S          -4.16230580693465  -11.78169827285533   -6.80648437311633
C          -3.19230348329710  -13.21822608392990   -6.78232244620407
C          -2.00684552178778  -13.13114012471441   -6.06754801361930
C          -1.27465280713899  -14.35381121082475   -6.12237664372641
C          -0.03543446869036  -14.57535893737139   -5.50512834489070
N           0.97922319093995  -14.77941213515507   -5.00982135449576
C          -1.91611625944895  -15.32894253675265   -6.87412552454465
S          -3.44495450576118  -14.75243206312613   -7.52182544339052
C          -1.50387204357556  -16.65272314578547   -7.17026090702250
S          -0.01661385184482  -17.35415000920283   -6.55963045191494
C          -0.27657943122546  -18.85075306427325   -7.34842392803122
C          -1.44986071591423  -18.84723123053110   -8.06202801092465
C          -2.14375217723299  -17.59705421402480   -7.95624389131605
N          -3.28322144414306  -17.68410374665813   -8.69007072148318
C          -3.33548948036068  -18.94662505451075   -9.25908629237803
C          -4.40451059674324  -19.33380082031028  -10.07948588891911
N          -5.27769106538773  -19.65269537284385  -10.75206351699708
C          -2.23469709171043  -19.68523737559590   -8.89831500585519
H          -4.52622239704583    0.63484993877774   -1.70541857690370
H          -2.72442227315878    0.99921264164399   -1.66617826815643
H          -5.31386629277981   -1.77445250210714   -0.89931935422349
H          -4.31439430988948   -3.98132695755612   -0.03085797601133
H          -2.89725203165359   -5.76661839654236    0.59062813637185
H          -0.90761563674901   -7.29839421730748    1.15775911577784
H           1.75217725221617   -7.25992524786261    1.15023970710948
H           2.83277106806105   -4.51793573867806    1.15780171353003
H           5.90816173795325   -8.39813375051153   -0.93721296916521
H           3.25449958954955   -8.72150521779086   -1.45845767564599
H           2.15460849897831   -5.86151548524409   -1.49891025455699
H          -0.05039943526606   -4.66983078871826   -2.23194569439729
H          -2.98334312224994   -6.80010314588042   -4.39492419954736
H           0.44361309762294  -19.63618161845561   -7.24155924520166
H          -3.98064399515528  -16.97089468056661   -8.81777129380613
H          -2.02054135544692  -20.69166188387662   -9.19510691898631
