81
 SCF done       -139.002707429828          0.000413828818
C           0.03575715957225   -7.05654893511972   -6.98442158006206
C           1.31756238631437   -6.80681187968164   -6.68206714439946
C           2.29204434660578   -6.12160748222021   -7.48201698929145
C           3.51317440714235   -6.02302235451675   -6.91072385126427
C           3.60609998286511   -6.61748418911005   -5.62200640141521
S           2.06461354687622   -7.30788150980101   -5.15870364892003
C           4.70783212309750   -6.67843014951065   -4.80131126799754
C           6.00025977066913   -6.14382477588619   -5.02152633727014
C           6.86855105308375   -6.36229605293829   -3.99776720098184
C           6.31792820682487   -7.08550944941033   -2.90929590167967
S           4.64578612935752   -7.48467681717192   -3.24558217892252
C           6.94831200191810   -7.41268718171423   -1.73604098878409
C           6.36439275655115   -8.13571083847433   -0.68281484762803
O           5.13123404768363   -8.68834354521669   -0.83410018718287
C           4.79593494276650   -9.29010537834065    0.33670921657196
C           5.83338462173555   -9.12123376774073    1.26128172400993
C           6.83655063181693   -8.39529069937604    0.60770187216101
C           8.14154553084605   -7.97570358175845    1.18767656780877
C           5.87297595067580   -9.62494494991638    2.65844756776372
C           3.55757238393615   -9.95170245975412    0.47455973430462
S           2.98236321092967  -10.43280525373279    2.03554747333405
C           1.47184536786029  -11.03803731376135    1.41913808579616
C           1.44437009243330  -10.92103510935275    0.01683764594608
C           2.61964970618513  -10.30309748932538   -0.51636889795552
C           2.77337962126065  -10.15792171805768   -1.90579797780311
C           1.78762986383056  -10.61145854718293   -2.73449519176329
F           1.92467693119679  -10.50659925489478   -4.06803434753041
C           0.63204769403597  -11.22767417510398   -2.21428305290737
F          -0.30940604965035  -11.68351499235334   -3.06448794396174
C           0.45686684488652  -11.38888369615512   -0.86948109066985
C           0.55525749412400  -11.51907393133721    2.37198164850690
C          -0.77021036704059  -11.80273095378014    2.22070470168737
C          -1.55314453052527  -12.26485040412318    3.30150483793695
O          -0.96238489747733  -12.48236256934068    4.50239643383627
C          -1.91150011625670  -12.90200517232342    5.37429297333002
C          -3.14723368819763  -12.96044632976003    4.72204723719434
C          -2.91615030563860  -12.55630433995212    3.39912576986343
C          -3.94631653231370  -12.45486903918709    2.33099187082267
C          -4.45768951092511  -13.36900064001146    5.29353262668501
C          -1.53133332203955  -13.18534610527740    6.69599320207436
C          -0.24241625702001  -13.07477605293896    7.15271538645221
C           0.22018238122787  -13.33251329235195    8.46731953617786
C           1.55641780824844  -13.14935933098261    8.63758580529200
C           2.23379109703882  -12.73861776739523    7.46259559509345
S           1.09931869381482  -12.58223151810427    6.13439465785880
C           3.57837390582941  -12.49523628558973    7.31064044620534
C           4.58974089057201  -12.58839651147579    8.30479382939198
C           5.83731868409851  -12.31231426863362    7.86328962072952
C           5.91305006048846  -11.98041268233616    6.47031416425338
S           4.28495805439539  -12.02533306122111    5.77314017322475
C           7.01149974483392  -11.68726623288025    5.76006883466862
H          -0.38130517414132   -6.73395471432922   -7.92205653181190
H          -0.60970677673414   -7.58673195210721   -6.30881194976187
H           2.03252582597424   -5.73612683587986   -8.45219911480156
H           4.36144198425203   -5.54585299898422   -7.36935049004191
H           6.24883225248120   -5.61032812330162   -5.92161750438968
H           7.89111302979786   -6.02731822080537   -3.98312970432118
H           7.96405045130125   -7.07557062612845   -1.59561695005352
H           7.98699174743331   -7.46812694622843    2.13841051895580
H           8.66508788364950   -7.30169212148716    0.51675806632937
H           8.77461189238657   -8.84481631817120    1.36742784709019
H           5.60926016596298  -10.68150513996844    2.69332589792918
H           5.15602520133669   -9.09148528361727    3.28242823666935
H           6.86664081959748   -9.48870480841835    3.07628489653629
H           3.65846761352105   -9.70869198294528   -2.31874012010762
H          -0.41936433310106  -11.90225398346070   -0.51521333418367
H           0.96223702569086  -11.63129659140693    3.36961439223254
H          -1.28670651064272  -11.64872650810435    1.28867421947862
H          -4.50605958912544  -13.38637931304582    2.25848821691386
H          -3.49285688849671  -12.24252460958272    1.36747344476420
H          -4.65428318953988  -11.65924762347432    2.56415034704570
H          -4.37202904283984  -13.57953637419671    6.35549347314941
H          -4.82737861088468  -14.26227406473186    4.78928516666344
H          -5.19417402737301  -12.57886552837881    5.14965157631568
H          -2.29772515503191  -13.50649326151182    7.38428535194129
H          -0.45602123374373  -13.64666690171761    9.24338009809210
H           2.07221382627956  -13.30191475999771    9.56879274500757
H           4.35310540625071  -12.85997953864230    9.31842046808947
H           6.72473820439758  -12.33463961290466    8.47085713787891
H           7.97914390825392  -11.67532434112367    6.22967759529984
H           6.96360874252783  -11.46236087874013    4.71151379254526
