69
 SCF done       -126.956939639829          0.000658117058
C           6.24485171410729  -13.21518298209758   -9.99059947476141
C           6.54963795259648  -13.98301815283971   -8.93702147633814
C           7.19732285696062  -15.26460025090493   -8.94093065978788
C           7.37644015293570  -15.80678860998048   -7.71771127284711
C           6.89081302071473  -15.00682467603422   -6.64404461554783
S           6.18620773094399  -13.52381282655952   -7.26574410572576
C           6.93425342783935  -15.29334713736106   -5.30467854342343
C           7.45558141229927  -16.44789718871650   -4.66430132213554
C           7.34249965992951  -16.44210901001834   -3.31254996932965
C           6.72546832105767  -15.27650282197738   -2.78356192849281
S           6.29230120956361  -14.18317581455776   -4.10547245496236
C           6.46908548734114  -14.98364770538568   -1.48062451857378
N           5.87898620153412  -13.81735518367047   -1.10646818162593
C           5.55133440813029  -13.42637532872834    0.14321525287734
S           5.95685757613847  -14.39122216282009    1.52865421805662
C           5.31619878881964  -13.14781224511104    2.56192992510894
N           5.35633230649869  -13.37508178142975    3.93122634879861
O           4.91489114639977  -12.50932795196932    4.67083480081118
O           5.83888848140615  -14.43914354748883    4.29858830349713
C           4.83212855569709  -12.06662068352511    1.86927737208810
C           4.93617135514346  -12.20962966940245    0.47697610232242
C           4.47920186633941  -11.19850650643057   -0.44775242242617
C           4.07509245613584  -11.37228325033625   -1.71960072401676
C           3.66225573640736  -10.28040720548135   -2.55530165669313
C           3.26526512409000  -10.38709767445173   -3.83220219513175
C           3.19904603073855  -11.68778470689713   -4.57538580167376
C           2.82710271650781   -9.16720492840239   -4.60610160377018
N           1.45107496668066   -9.24841184309035   -5.04257691638100
C           0.39146945300635   -9.15883318937987   -4.19946406574890
C           0.39759906795046   -8.81232408552523   -2.89770182536097
C          -0.83191757244336   -8.68767472599154   -2.14390413711123
C          -0.88251863549795   -8.39059604576313   -0.82318235482299
N          -1.95140993296023   -9.03447744303898   -2.85878226644837
N          -3.09511399724940   -8.58796345876805   -2.52666148910818
C          -4.08293095422206   -8.94071963081046   -3.38270709955228
S          -5.76724051147711   -8.66867578710731   -3.00670980301574
C          -6.31374617329530   -9.18008267864169   -4.55149625720292
C          -5.25486749929507   -9.53627893764964   -5.35611639631809
C          -4.00155719364481   -9.40640271986418   -4.68386264461957
O          -2.97845085571505   -9.72925139226943   -5.49377931915594
C          -3.55559573489927  -10.07166289753441   -6.67641000390639
N          -2.68613388409573  -10.45237571775178   -7.72317412965020
O          -3.20100191581928  -10.75875427555452   -8.78193339823455
O          -1.49224818924377  -10.44267013735244   -7.49676066225420
C          -4.92324685066779   -9.98244347242277   -6.66583771535888
H           6.48347007320285  -13.53580971785794  -10.98919717490901
H           5.75543713151938  -12.26535019786354   -9.87760841928477
H           7.49997066887694  -15.72059342313534   -9.86681763410758
H           7.84433976130656  -16.75841973566340   -7.53751313516082
H           7.89729042626957  -17.24862578485448   -5.22938262862885
H           7.68049734247859  -17.23217913419228   -2.66627836588725
H           6.71715237490635  -15.68077891115702   -0.69471839624689
H           5.71072732330262  -13.13839946719793   -1.84310887962076
H           4.40093499160562  -11.21466354341997    2.36311841669110
H           4.43827398944081  -10.20134220614269   -0.02794870073973
H           3.99457557324456  -12.35870350135731   -2.15257409519716
H           3.69860441655536   -9.30072603040017   -2.09633919698864
H           2.49588342815102  -12.37150640066674   -4.10150985674129
H           4.17577571198240  -12.17056372185722   -4.59855844579975
H           2.87980048924470  -11.53094992186659   -5.60193474253875
H           3.45197051757504   -9.05806721022444   -5.49838323961820
H           2.94280295723448   -8.26872339254617   -3.99398781615688
H           1.27566313685993   -9.72114432569759   -5.91453970522212
H          -0.55904681310510   -9.36273663979407   -4.67256786676691
H           1.30817828602706   -8.60670388871191   -2.36037237089913
H           0.01294016983661   -8.25075249137268   -0.24496952589379
H          -1.82640845959706   -8.35686741385155   -0.30871051797812
H          -7.36122622895113   -9.19160132371664   -4.77158914162313
H          -5.57579655107238  -10.19841317493026   -7.48618747244311
