90
 SCF done       -166.307033574615          0.000586328798
C           3.02506735877056  -14.47455570925524    4.21109275962500
C           3.49133809584601  -14.86560850002544    3.01823955256170
C           3.83090143074095  -16.19702934111471    2.60059372749003
C           4.28256298922022  -16.28701288517808    1.33172954838508
C           4.34138369058918  -15.04271017319120    0.63975199936739
S           3.78806615142171  -13.74415788295516    1.68036866722830
C           4.75616069885522  -14.82229210622498   -0.64815632215859
C           5.22379122885424  -15.76871561992674   -1.59795183299815
C           5.54970167782036  -15.23372849588515   -2.79881385782620
C           5.37293051291804  -13.82085400046564   -2.88477762193715
S           4.76669252298878  -13.21155197692719   -1.34659391746622
C           5.55777152660320  -13.07889500841824   -4.01169601212581
N           5.42205508956993  -11.72764091543217   -4.14210980793189
C           5.63320072110551  -10.78161298227418   -3.19499176517288
S           6.74461914476703  -11.00287841356846   -1.87814190331726
C           6.60130819789811   -9.31569812941878   -1.48669464620657
N           7.31280237778075   -8.84282604356714   -0.39167942679318
O           7.21775825853924   -7.65595144867799   -0.11517527606634
O           7.99740821256392   -9.65316782000982    0.21816001929544
C           5.75677826964429   -8.63178402332372   -2.32777547476179
C           5.17666873065388   -9.45911322305743   -3.29557498955884
C           4.18618362841955   -9.01579232737946   -4.24919723576197
C           3.10172237070254   -9.72227765555906   -4.61211464849719
C           2.16208080797362   -9.22135386338855   -5.58016560759114
S           0.47103324472447   -9.14163689347689   -5.24831109734984
C           0.13440176860042   -8.20511314438502   -6.67214843887084
C           1.29806142045797   -8.02442968903062   -7.42911064383861
C           2.44027489421739   -8.63125542922566   -6.80546465635514
C           3.68354545293473   -8.71362523386967   -7.50443784857146
C           4.68815148047689   -9.56443823446098   -7.02341882478967
N           5.46184633970247  -10.33729793497802   -6.66429265739833
C           3.80236609422669   -8.09623734547504   -8.72754690767002
C           2.71408256465935   -7.43748090524082   -9.30855463334831
C           1.46896691073902   -7.42600942311025   -8.71590672448403
O           0.36808434516717   -6.90041225525270   -9.29706974258259
C           0.46289883966130   -6.34486442303268  -10.58962919594791
C          -1.22483933462817   -7.78685519494878   -6.81028318077661
C          -1.64745390268094   -6.64906143129441   -7.39311035924774
N          -2.94184229213332   -6.21938224283488   -7.54385860020101
C          -4.12809377822700   -6.80068025834797   -7.25648147043536
S          -4.29300758255713   -8.36317100354425   -6.53131989137634
C          -6.02482341261322   -8.21169951241358   -6.60003729855665
N          -6.77891641035980   -9.27524642714059   -6.11520428032810
O          -7.99493520155055   -9.18056377067081   -6.15381508188340
O          -6.15797580232609  -10.23667053255574   -5.68272077927955
C          -6.44234120663279   -7.02790889148211   -7.14524720419787
C          -5.37716554581391   -6.19551839051588   -7.53305007065280
C          -5.49945281456240   -4.91457923567279   -8.15258989433953
C          -6.65594395690658   -4.26048414613191   -8.43252581123550
C          -6.75510011821017   -3.00631933114233   -9.07907742616425
C          -5.77511134423859   -2.22675142654954   -9.63451695500328
C          -6.00267568598747   -0.97504582041938  -10.27285560237725
C          -4.89562188706445   -0.37504607123654  -10.77912885317382
C          -3.69888652707536   -1.10819459995610  -10.57956684102761
S          -4.05426303632054   -2.59209696518535   -9.71484394331825
C          -2.42195127983332   -0.78636492249334  -10.96078789016681
C          -1.98874059030432    0.38180167619507  -11.64865209367537
C          -0.65981055634843    0.43117502731700  -11.88392452322110
C           0.07502938542503   -0.70168098056752  -11.39709795354733
S          -1.05107780186443   -1.83313423417051  -10.62843394688848
C           1.39330045831256   -0.92177591157050  -11.47958288563858
H           2.86080584738839  -15.18919746596652    4.99825138977833
H           2.80561486994508  -13.44395161294799    4.42180207908959
H           3.72063996251181  -17.02697440895670    3.27602969895495
H           4.58234747709203  -17.20463616660349    0.85719950115721
H           5.30305312188101  -16.81404360248683   -1.35964548366090
H           5.92038794269619  -15.79574979769079   -3.63773772177186
H           5.78407068096657  -13.59793800320377   -4.93288952279583
H           5.30012310435911  -11.35940955898203   -5.09118522352630
H           5.54936014895624   -7.58355403812470   -2.21256715092477
H           4.32308045659066   -8.01541791106080   -4.64012427257896
H           2.86696905388143  -10.65690838394853   -4.12072693193897
H           4.73578459903135   -8.14941508411771   -9.26748857379319
H           2.86146872166030   -6.97841740693658  -10.27211182848522
H          -0.54612065499909   -6.02359519859263  -10.84303749885683
H           0.80245947876652   -7.08374416428766  -11.32078558681736
H           1.13003476620285   -5.47782012061823  -10.60585048074176
H          -1.92929401252841   -8.43166818642532   -6.30612444196843
H          -0.93329595819252   -5.95469862528966   -7.80335950922640
H          -3.03012237431586   -5.30806197124620   -7.97719684981528
H          -7.48337752305788   -6.78981198779391   -7.25876594275878
H          -4.57633703281615   -4.42443609364881   -8.42011109331530
H          -7.59614031446299   -4.70832213124655   -8.14445148855966
H          -7.75551936879948   -2.60079228147707   -9.16541554813801
H          -6.99456154637407   -0.56235270468406  -10.33417452101763
H          -4.90065006678961    0.56978184704028  -11.29222348603344
H          -2.68624623828237    1.14635470313635  -11.94187583858595
H          -0.15317111592893    1.23512131928195  -12.38752682752159
H           2.03917864766357   -0.20620364976543  -11.95635165548882
H           1.84721050173927   -1.80825325918532  -11.07625691054748
