101
 SCF done       -154.349327733063          0.000318399645
C           7.13388405832704   -4.00364448264754   -6.27502803392330
C           7.98748682784673   -4.94887205482773   -6.68966589511472
C           9.34730096558247   -4.78145327975308   -7.11738318091589
C           9.96534120982130   -5.92533010975845   -7.48373325298678
C           9.15460885549694   -7.09052522162836   -7.37973798070036
S           7.55748972320918   -6.66390709529597   -6.78721018084898
C           9.50307573129849   -8.38118997628159   -7.68550139864171
C          10.74237312231901   -8.86782619835138   -8.17463372763220
C          10.77455666984818  -10.20664141145311   -8.39539519259971
C           9.55808615112240  -10.87630167691985   -8.09630126201488
S           8.36700833660868   -9.70847430980745   -7.50673028949257
C           9.28430775869366  -12.20220632493036   -8.23057097070098
N           8.07286660296984  -12.73341062656428   -7.91322725096563
C           7.68155453032822  -14.01723395864302   -8.05854056697180
S           8.74145834961459  -15.20965690372361   -8.74381676519109
C           7.47985768047072  -16.39743453078041   -8.58068369680252
N           7.76141869191135  -17.69331451403746   -8.98083551855102
O           6.88131336126159  -18.53638739970863   -8.85532020892408
O           8.88042086198312  -17.90906792063758   -9.43090472805619
C           6.32605526024959  -15.89128372882506   -8.03647692474233
C           6.41643464099328  -14.52792736410143   -7.71786183813487
C           5.38224578151811  -13.74807943572301   -7.09068841452712
C           4.12191271497135  -14.17099428398187   -6.87583769375104
C           3.14024375645755  -13.37869789560759   -6.19809329768319
C           1.86588677646333  -13.73713324540445   -5.96422627874374
C           1.26358653889170  -15.02909292611531   -6.41428013831306
C           0.93707191073313  -12.75650799530021   -5.28013025478738
N           0.34762189230322  -11.81437430361643   -6.21046769993525
C          -0.57949851672705  -12.20703795097627   -7.11814352936105
C          -1.05825832257785  -11.43261400559776   -8.12347312666018
C          -2.00809597183649  -11.85282144184110   -9.08736288654032
C          -2.31209070163248  -13.13482948116290   -9.45313601164362
C          -3.26256360560532  -13.53415347221633  -10.43066509184069
C          -3.28684801707970  -14.86733760043859  -10.69691717046073
C          -2.34957653869369  -15.62186507224502   -9.95187387236344
S          -1.47128918271779  -14.56844228680173   -8.86084805724232
C          -2.06838910535969  -16.96576137668183   -9.99869183413964
C          -2.72294113750818  -17.98442143171262  -10.73619396470328
C          -2.19763485744247  -19.22065866907589  -10.55942159535297
C          -1.07536991369511  -19.26864521189138   -9.67468929966979
S          -0.73971641040421  -17.64301875454928   -9.06916049502909
C          -0.31436365784093  -20.34830462570955   -9.38490355961587
C           0.84628969022447  -20.34468514230135   -8.50163114726722
C           2.08955978427023  -20.79611659709149   -8.97132522888750
C           2.18613313254653  -21.24856783191552  -10.40690390382738
C           2.35094918725025  -20.04593582658815  -11.33876648998936
C           3.22302461762493  -20.73489588686894   -8.15538533103454
C           4.56537918685963  -21.20018362099893   -8.66031106776649
C           4.76065812327063  -22.69652198668602   -8.40216326914569
C           3.09609377007945  -20.26638300094504   -6.84260697820815
C           4.25851667728531  -20.16457913056416   -5.88938857786917
C           4.96168472923857  -18.81281475250497   -6.02925016682023
C           1.85893966882133  -19.84446456638347   -6.38587604568682
C           0.72494487774138  -19.86674276486512   -7.18561291094246
C          -0.57559932700913  -19.49494612373225   -6.63477157981474
C          -0.77208824245082  -18.61630232790485   -5.66051242596251
H           7.43645601884953   -2.97240091117098   -6.23165770082860
H           6.12929638244809   -4.23984289559143   -5.97563582371368
H           9.79962280402248   -3.80567405126826   -7.13074819305451
H          10.98225542706454   -5.98165189590951   -7.82996287708785
H          11.57236591511405   -8.20743438907146   -8.34981428157287
H          11.62782951758139  -10.74546661160064   -8.76660370266105
H          10.03128180191990  -12.88636814900495   -8.60320379928181
H           7.38305339594107  -12.08226102450191   -7.55331546924830
H           5.46105661996554  -16.50513102931160   -7.87093127789096
H           5.65442856008608  -12.75420768461388   -6.75560588589783
H           3.81775801276116  -15.14450377057202   -7.22543472800984
H           3.48209848631334  -12.41379294528661   -5.84047565193524
H           1.97279027798382  -15.84960102896484   -6.34565195381266
H           0.93917617767954  -14.95984319427978   -7.45344394416071
H           0.39097956743597  -15.28141338203918   -5.81714494969907
H           1.47985318941094  -12.18044897221563   -4.52629084251414
H           0.12236166147087  -13.29344613747795   -4.78687296955528
H           0.90721708451923  -11.01012197152411   -6.45351786414026
H          -1.00029954553227  -13.18242443432378   -6.93145720935563
H          -0.71188096448571  -10.40941851269798   -8.20003487158768
H          -2.51286601532240  -11.07131745056350   -9.64173789725312
H          -3.89322015421284  -12.80876379868742  -10.91552545995643
H          -3.92944204387781  -15.32855814913257  -11.42599330135379
H          -3.56631074375366  -17.76628092890265  -11.36790745124634
H          -2.56368711616707  -20.11476183369694  -11.03382913878704
H          -0.56780934137542  -21.27558412220570   -9.88395541344652
H           1.28244056188162  -21.79169617398371  -10.68792757464403
H           3.02322775854214  -21.92987348210232  -10.54514115405037
H           1.50263475592605  -19.37209338838827  -11.24163857269912
H           2.41831832487129  -20.37247938119381  -12.37455674511044
H           3.25403465092379  -19.49363965474873  -11.08873598906685
H           5.36369866641099  -20.64187822725973   -8.17615166246435
H           4.66177015976703  -21.00042553706668   -9.72620606816093
H           4.69290796826747  -22.91582366139394   -7.33862585240574
H           5.73705086341298  -23.01597150787701   -8.75964533433190
H           3.99651760643569  -23.28149839587639   -8.91050884123096
H           4.97853995102752  -20.96431675267518   -6.05549855072861
H           3.88287797441803  -20.26419643783680   -4.86777086776180
H           5.40793783722849  -18.72118431564728   -7.01612214945348
H           5.74871013646929  -18.71505821688753   -5.28400320126314
H           4.24896107317670  -18.00195895102275   -5.88701005070881
H           1.76525005553477  -19.51404099056915   -5.36134544044455
H          -1.42865856794199  -19.99481842277660   -7.07755649389440
H           0.03794232101225  -18.06438786074770   -5.21423758144269
H          -1.75814579368561  -18.40034925756594   -5.28605695260390
