101
 SCF done       -190.100203810297          0.000953719356
C           9.03325111688046  -20.70937412469909    8.38251532584835
C           9.54057667416503  -20.03354054798441    7.34275942606703
C          10.79665490699010  -20.24746525877697    6.68249301774796
C          11.03516059523715  -19.40846136008609    5.65061139252698
C           9.99670679797902  -18.46534337252923    5.40971498695747
S           8.69431900510503  -18.68907535686226    6.55929420868117
C           9.95836442271087  -17.49824936392379    4.43338226270857
C          10.92560658769290  -17.21777925513549    3.43849990471087
C          10.58292115719518  -16.19726033504909    2.60977114153239
C           9.32903822971068  -15.59308575694645    2.89617197726940
S           8.60047112039172  -16.39709563645135    4.27724002029880
C           8.75610857123781  -14.61713141107942    2.11801196145923
C           7.53488374551549  -13.93512190336526    2.25144267060196
S           6.79684564342303  -13.35402760805784    0.78406164028886
C           5.35559622578014  -12.81525332164196    1.58422624044216
C           5.48933617824406  -12.97851312456538    2.97196445410964
C           6.72186814641275  -13.60289040826893    3.35277020735223
C           7.05467863756168  -13.70646907917130    4.71481783734207
C           6.17364955243490  -13.25874564677588    5.65676860233199
F           6.48655968622821  -13.34583048365027    6.96076453811903
C           4.95361039791656  -12.65753441031211    5.28359047609806
F           4.13000103286341  -12.19398153041602    6.24095423548407
C           4.61668553416984  -12.50183375951686    3.97075398929202
C           4.28587777342485  -12.32507578958575    0.79164670378086
C           2.97851100885883  -12.29724519368494    1.14355885725675
C           1.95897817591827  -11.76805470979003    0.29506573096310
C           0.63878846157837  -11.72738822340919    0.55417909520490
C          -0.02413414376707  -12.28462443115545    1.77140719788880
C          -0.31214054076155  -11.13394724424405   -0.46075146846342
N          -1.03129710049317  -12.15968676035582   -1.18859128959090
C          -2.10266738802011  -12.79058749614925   -0.65182453030186
C          -2.61558277796460  -13.96385556828702   -1.07963749019598
C          -3.75237163968960  -14.58196081381780   -0.48722547461997
C          -4.38392128054485  -15.72376182724145   -0.89329389860583
C          -5.45719167907643  -16.12156293545734   -0.06055415671048
C          -6.28886318312640  -17.25217647924548   -0.19120824113258
C          -6.08065103228209  -18.21950554456100   -1.25134426766436
C          -4.90285568419633  -18.75362703356873   -1.68517823284647
C          -5.07900352327187  -19.66994092581646   -2.74567553108191
C          -6.37404934973837  -19.84380404563840   -3.13434304101811
S          -7.41948700519877  -18.85743794918682   -2.16695273993450
C          -6.91863302214228  -20.71738417463130   -4.20468195546434
Cl         -3.75215115631318  -20.49437064008416   -3.47505331031683
C          -7.29817524253158  -17.39732417445908    0.75311799019594
C          -7.47960899858120  -16.50121582904518    1.83370616339488
C          -6.63083346160708  -15.38464023217029    1.98683317432053
C          -5.65427593191051  -15.21873395855376    1.01479397268571
S          -4.48421186407775  -13.92855838278542    0.97010920068882
C          -6.76498721283135  -14.47479150571018    3.10693681717913
C          -6.63322492686833  -13.11532898940253    3.11342116580443
C          -6.83679787661627  -12.55551861366985    4.39333274361617
C          -7.10928928494692  -13.46314738991380    5.37541928166846
S          -7.10916848055657  -15.05916239614348    4.71463047555161
C          -7.40789808388839  -13.24151201970135    6.81172381534580
Cl         -6.75697636574472  -10.85738284319513    4.67370045608236
C          -8.56391176025998  -16.87976990207103    2.65492686468617
C          -9.17241449906685  -18.03613634482257    2.25880493201070
S          -8.45054464345107  -18.70799202594833    0.81535817156919
C         -10.25321359956383  -18.64402346621399    2.95737455913393
S         -11.13033409274222  -20.05950940736482    2.43876899149862
C         -12.15624666445520  -20.08050234213604    3.81694484891762
C         -11.85205960623005  -19.04130033055650    4.66237009401616
C         -10.77809453083696  -18.23851683110478    4.16275552096529
O         -10.49071540961987  -17.23035109107056    5.01616764737828
C         -11.36133471174954  -17.38207433330264    6.05051853370372
N         -11.27290932008986  -16.44853304393900    7.10899611972081
O         -12.05026339679591  -16.59567550132071    8.03326425043697
O         -10.43590204306728  -15.57318332441593    7.02638510850169
C         -12.21019746515097  -18.44621720900568    5.90487947994943
H           9.57862974725226  -21.52260670718855    8.82795935570346
H           8.07457156090888  -20.46508103554039    8.80185588598957
H          11.46484642928294  -21.02253531632053    7.01375337864883
H          11.92493088672724  -19.42674781665516    5.04650085291170
H          11.83863962893414  -17.77997466721196    3.35997010654237
H          11.19058617643893  -15.84889119480142    1.79300141317966
H           9.28774435561254  -14.40734902009232    1.19615145078936
H           8.00416760625227  -14.10137770292467    5.03025245503784
H           3.71472558442918  -11.97073183198502    3.71970007057938
H           4.56100879246884  -12.00536274457217   -0.20665286488111
H           2.67990804405312  -12.71596966998509    2.09036366158803
H           2.30997635613384  -11.33730704404697   -0.63579714687137
H           0.68764019448530  -12.67081951122185    2.49221633884063
H          -0.69751284158258  -13.09634280789579    1.49087509344127
H          -0.62525843920160  -11.51515681045393    2.25607743815363
H           0.23271388095692  -10.52378160100723   -1.18561434909397
H          -1.05133578248105  -10.50358655569102    0.04182848879117
H          -0.47694550375903  -12.69865944442722   -1.83927199657783
H          -2.59679962211563  -12.25469315527800    0.14809503185532
H          -2.15666374282614  -14.49427747145517   -1.90265921720459
H          -4.09797096628871  -16.25438221780347   -1.78260627899690
H          -3.94724006212954  -18.53972358475783   -1.24354136902627
H          -6.10760093568179  -21.26123196533643   -4.68269815360491
H          -7.43889964059819  -20.12487075782306   -4.95666422674108
H          -7.62925224259514  -21.43170988859782   -3.79032046748215
H          -6.44115349978233  -12.52256364379218    2.23856697839045
H          -6.60377322434300  -13.62979612359861    7.43728850700431
H          -8.32694329380828  -13.75911101998202    7.08622927636775
H          -7.52101886477412  -12.17779253887002    7.00631692027587
H          -8.90060264120257  -16.32283745606863    3.50740560424111
H         -12.90094500339119  -20.84201560960840    3.91793736197180
H         -12.97008234300297  -18.74497075545252    6.59679754653396
