89
 SCF done       -153.491394125311          0.000286165356
C           6.91367186241861   -1.36846442080944   -9.90037984848632
C           6.10656793367487   -0.92543119766100   -8.92686303075608
C           5.61524243388463    0.40850802756741   -8.73134078998780
C           4.81282535010964    0.55568822377305   -7.65413814947733
C           4.60292832386760   -0.64014555525160   -6.91187563530950
S           5.47326285318400   -1.97135633140280   -7.64560423215703
C           3.83625599370476   -0.79544339355903   -5.78112126354182
C           3.08524853048218    0.18654562584661   -5.09200688239589
C           2.41702568541665   -0.29101113916617   -4.00961562780258
C           2.59678089734740   -1.67864457948174   -3.76359367252461
S           3.66917650662593   -2.34904680591071   -4.98238251870651
C           1.91700927658440   -2.37390692816601   -2.79343393916546
C           1.94892340189475   -3.73200847607877   -2.43504796020920
S           0.49742672722082   -4.38759887748252   -1.73616215944635
C           1.11176639923035   -6.01138276859912   -1.67509950676329
C           2.45198805410111   -6.02784675423904   -2.09859419579195
C           2.92815662049495   -4.74228128839027   -2.51903405862544
C           4.28429328722017   -4.57440053945637   -2.84751421595546
C           5.11970435093655   -5.65403629145412   -2.82410983440809
F           6.41960092975573   -5.50297066071385   -3.13012937341786
C           4.64640429454869   -6.92656729241360   -2.44594408886177
F           5.50207177317873   -7.96469058696599   -2.41657911379621
C           3.34644286066492   -7.11572566366876   -2.07579331001325
C           0.20299908857616   -7.01278904121561   -1.25522459318316
C           0.32147472675758   -8.36108712735060   -1.32494176996692
C          -0.73091825803445   -9.22729803725047   -0.89813159120930
C          -0.69838446029008  -10.57188684429579   -0.91269680370717
C           0.48316525228164  -11.37416716206931   -1.37013244648156
C          -1.88686310279216  -11.36645770045300   -0.45074902102812
N          -2.33286470328902  -12.25252933390843   -1.50488150543442
C          -3.26640197801528  -13.21228216710626   -1.31515462372437
C          -3.79871732517788  -13.94771540585732   -2.32167698147569
C          -4.76620281632122  -14.97541710044361   -2.20367799190396
S          -4.87689400676015  -16.13609786119371   -3.48662831649526
C          -6.13954132576605  -17.04708419689908   -2.69906507932488
C          -6.48034310435319  -16.43463911832879   -1.47665642002706
C          -5.71591713652038  -15.25674029488917   -1.20378515316492
C          -6.03144215948441  -14.49810364095021   -0.06816478813707
C          -7.01630955553197  -14.92080980699253    0.79607715271684
C          -7.32333465650961  -14.14146993694465    1.93073652365125
N          -7.53917964206347  -13.48093331233833    2.84365478722388
C          -7.73893357886445  -16.13033340226455    0.55528876795893
O          -8.66849024970356  -16.43660136220370    1.49488554745413
C          -9.43979275707204  -17.59977539374091    1.32654429698321
C          -7.47378910346107  -16.85978248317556   -0.57605640042582
C          -6.69345083362880  -18.20461202302311   -3.24684563475625
C          -6.37559228134503  -18.81619541132310   -4.43609651735329
C          -6.97091237957372  -19.99930899615390   -4.93676001189049
C          -6.48043976344055  -20.41594291270059   -6.13522321380765
C          -5.46372040810326  -19.58291114372854   -6.65886480166678
S          -5.15794904709800  -18.24439743244376   -5.56470584078074
C          -4.77279090024038  -19.73156789955733   -7.83884408583693
C          -4.92320371417002  -20.76205668575147   -8.80467067442476
C          -4.10260921434523  -20.65208345796852   -9.87438898789636
C          -3.23102337560851  -19.51422577843261   -9.83866030643688
S          -3.53096268457870  -18.60135591875881   -8.35084446552482
C          -2.31948472618015  -19.14869597288154  -10.75150929549134
H           7.27519166081953   -0.69894858569626  -10.66076456741367
H           7.22489391949730   -2.39550353173504   -9.95328388528436
H           5.88758366341819    1.19786876928620   -9.40923176038137
H           4.35760042964574    1.48443567424905   -7.35896072019487
H           3.05600035019807    1.21087288875325   -5.41699288199944
H           1.79230492398988    0.30767018102790   -3.37009426210013
H           1.15046714139773   -1.79806558936085   -2.28589146279792
H           4.68427128559525   -3.60575710168903   -3.08978877305903
H           3.04040893078189   -8.08907257357022   -1.73603358964121
H          -0.72997959612771   -6.61887517237964   -0.86660628254992
H           1.20204201344284   -8.82079567288782   -1.73955754167230
H          -1.62501626829383   -8.73568527886177   -0.53452214731354
H           0.81336769139812  -11.06339803163868   -2.36011560632158
H           0.23547501870033  -12.43173091832492   -1.40472508271790
H           1.32029858877184  -11.24110624526119   -0.68461343438146
H          -2.69445264314340  -10.68874410355551   -0.13864031676809
H          -1.60987058568841  -11.98124854531630    0.41525581536840
H          -2.16917868904496  -11.94368245893599   -2.45144298980757
H          -3.51284700525094  -13.40280370161479   -0.28178042369800
H          -3.41721372976181  -13.78727429049323   -3.32255838087590
H          -5.53603322575644  -13.56056990026915    0.12556859678986
H         -10.10159328394730  -17.63942627043783    2.18980550112071
H          -8.81276906821062  -18.49723836920942    1.30770291309417
H         -10.03959573542118  -17.55417261133557    0.41155007253806
H          -8.02810979688967  -17.75736706823038   -0.79536018310012
H          -7.46725134246179  -18.68778193396206   -2.66447926018029
H          -7.74603843755489  -20.50735284996369   -4.38922926059902
H          -6.81838646975879  -21.29496531232036   -6.65403748639875
H          -5.63885017488328  -21.55404963180903   -8.66983800804743
H          -4.07479393478576  -21.33845002506975  -10.70218503931286
H          -2.17101371163208  -19.73313173707338  -11.64225350286165
H          -1.71464608528651  -18.26959796593415  -10.62671239593670
