88
 SCF done       -166.998293106142          0.000653876773
C          -0.07825287483804  -13.92491133887145   10.39499421213007
C          -0.04706275398391  -13.04008678933728    9.39036542698080
C          -0.21357290302270  -11.61590719614058    9.46689184903653
C          -0.13195365512540  -10.97829862979766    8.27982353233350
C           0.10531937074920  -11.83729399040835    7.16791376014172
S           0.22001164454298  -13.50303264805023    7.70192025783663
C           0.23767527452213  -11.47497335051864    5.85133112626208
C           0.17000229471080  -10.17320633702510    5.29015354916459
C           0.34699655619519  -10.13221864779936    3.94640653176305
C           0.57459803041946  -11.40308276546081    3.34933343203473
S           0.53280130481703  -12.66051388279971    4.59015755166053
C           0.80678247979421  -11.65400838309809    2.03340208134420
N           1.06453652229842  -12.89922154477206    1.54614232132620
C           1.31438796198873  -13.23531261205627    0.25763001478918
S           2.13228400417599  -14.73616015944492   -0.06575807358177
C           2.17584045646724  -14.33551617460743   -1.75531187175089
N           2.77131801378216  -15.24378656122795   -2.62642916434347
O           2.82372375321829  -14.94660141204205   -3.80887089271514
O           3.21146866263110  -16.27265921029717   -2.13471248032299
C           1.59695202867295  -13.12466974769650   -2.03500454932584
C           1.08769623859134  -12.48043446797550   -0.89733245511651
C           0.33731164321115  -11.24174263802148   -0.96098046814266
C           0.64537945737838  -10.17734337646450   -1.72215009586088
C           1.87232329160056   -9.92643410621452   -2.43069940333313
C           1.85870021832923   -9.03627230122981   -3.52806041985177
C           3.04634987197993   -8.72138341126813   -4.27876349787158
N           2.92806311760916   -8.12207029656969   -5.47432792134960
C           1.76999550915845   -7.64001521879334   -5.83708624211934
C           0.65130200541568   -7.68535248964616   -4.93136603803789
N           0.70559495272383   -8.42892805841703   -3.85811794547522
C          -0.51541189689029   -6.93330641743914   -5.20694127319017
N          -1.44234594009197   -6.30679621878384   -5.45607654372562
C           1.61387486595989   -7.07063739797025   -7.12307586862717
N           1.44167374434359   -6.59610799612700   -8.15173265694697
C           4.32931491931092   -9.06273812659186   -3.80050918711488
C           4.35219757032128   -9.95213169039625   -2.71430791160070
C           3.14423076165475  -10.39801943366068   -2.05051760104724
N           3.43254764721182  -11.19271018951144   -1.01314118127236
S           5.02291327189318  -11.37385748081336   -0.90655419047465
N           5.45002963840986  -10.44521648882111   -2.13533097961854
C           5.52328364685275   -8.48428494051901   -4.34556828999111
C           5.66623000651072   -7.20323616892948   -4.83993049001306
C           6.98726931447514   -6.96170019714400   -5.32445298840368
C           7.51017005041309   -5.79399381219580   -5.87769699311054
C           8.83692730429919   -5.77527376552592   -6.27979351983655
C           9.65793571143243   -6.90841759012794   -6.13013335952259
C           9.15836492241101   -8.05982555829565   -5.56727310643023
C           7.82903051119538   -8.08443748341507   -5.16249053658247
S           7.00591956978161   -9.40796896370520   -4.40289905878792
C           9.38188685885789   -4.59934831513115   -6.84489795831298
N           9.82512134540241   -3.64502586843785   -7.29996707003200
C           4.59799042055440   -6.22191564970955   -4.80013586215175
C           3.73878861110884   -6.02926177121485   -3.67546045229339
C           2.71016985567073   -5.17299268841947   -4.04193468013376
C           1.54661650348102   -4.76801946137798   -3.35473039519092
C           0.62690844678734   -4.03052329827489   -4.05099528682976
C          -0.66671517697675   -3.53424824300884   -3.68861850211909
C          -1.21720891527981   -2.89049892940972   -4.78105689123207
C          -0.27683639801467   -2.96209042342005   -5.85413369100826
C           0.85223603882057   -3.65187213935071   -5.43014438468530
C           2.02782334216058   -4.02008004209607   -6.10367550024419
C           2.94090330524747   -4.78427708227052   -5.41527696942990
C           4.14364140746928   -5.43120544885347   -5.83751464384524
C          -2.50591197673222   -2.24840114140491   -4.89377363732239
C          -3.41642713948729   -2.17073298963314   -3.92768410292706
H          -0.24358005519478  -13.59999356318488   11.40701252876682
H           0.05794508214943  -14.97750299787148   10.22711424998976
H          -0.38707743032036  -11.13579532790082   10.41351364385588
H          -0.23236029744211   -9.91490695279827    8.15367641394248
H          -0.00704596475565   -9.30759935145032    5.90235001865078
H           0.32936963607159   -9.23569059638461    3.35303188547728
H           0.82989132502609  -10.84608977980037    1.31895808272149
H           1.19316817560164  -13.62806676049498    2.24006692501422
H           1.51986873827544  -12.73762323202057   -3.03490199050123
H          -0.59371275797498  -11.22904611066427   -0.40720205235294
H          -0.09011058950437   -9.39204811163073   -1.83831138177652
H           6.88936930844857   -4.91751964748978   -5.98590797660275
H          10.68582032946865   -6.85917737712163   -6.45601570312757
H           9.78158498925780   -8.93048298450819   -5.43752497564131
H           3.87596233502095   -6.48649154476661   -2.71041857347953
H           1.38113907872661   -5.07240960535952   -2.32994278503837
H          -1.11803857192748   -3.66275896973107   -2.72281630518980
H          -0.43464889704384   -2.55438011247871   -6.83669216503124
H           2.18507755123609   -3.74142954723074   -7.13533684772497
H           4.55685170155041   -5.37746705562754   -6.82717530278868
H          -2.71363034542405   -1.80774444726045   -5.86065221405420
H          -3.25385907035224   -2.59725318081231   -2.95283202033926
H          -4.36046889724277   -1.67762158536860   -4.08135181815814
