91
 SCF done       -195.525586831839          0.000717391680
C          -5.92720876675268  -13.31394220434562   -5.76301886455640
C          -5.66597933131699  -13.53093522297822   -4.46811126061219
C          -6.42773149417580  -14.31334559258374   -3.53522763400106
C          -5.91512482693611  -14.35328909176624   -2.28740688015843
C          -4.71068854939810  -13.60875893802769   -2.12427710912402
S          -4.25576000087085  -12.85191868636751   -3.63910612435092
C          -3.97132755136264  -13.46212259369695   -0.97915348977152
C          -4.21526673629252  -14.01407465391610    0.30541398985565
C          -3.29840822056651  -13.67723192134418    1.24627212557921
C          -2.26142838821058  -12.82813496930495    0.77106162889507
S          -2.50975572596890  -12.48873091539043   -0.94612370614437
C          -1.22105152483363  -12.31472928478111    1.48024344137015
N          -0.29031051119195  -11.49496864500386    0.91633203768695
C           0.74784572411717  -10.89874298086243    1.53408071750905
S           1.03506175995672  -11.11954744855515    3.23002865508700
C           2.39875126577678  -10.04339792296797    3.12097649694697
N           3.11118777735636   -9.81776944893022    4.29710365971921
O           4.07387475885063   -9.07311400743732    4.25309405560936
O           2.70575817494027  -10.39728317224864    5.29515771714944
C           2.60813116488471   -9.55004342065649    1.86191529478964
C           1.67528607050923  -10.03053336170507    0.92403819844251
C           1.65220540089614   -9.71468963913699   -0.47208349560589
C           2.39294761416848   -8.76078448419329   -1.07538888353478
C           2.34605283642095   -8.49976396872470   -2.47245996788753
C           3.00786642913445   -7.47674867905390   -3.13925217756614
C           3.82033292692119   -6.57078352070636   -2.43912611062694
N           4.47121692940842   -5.86254300883207   -1.81490637228806
C           2.75701699149463   -7.48092558965432   -4.53915031467844
C           1.91165489192739   -8.52648380404205   -4.89177198446123
S           1.40173246459391   -9.49363070388854   -3.56485206320885
S           1.54169678156994   -8.64677919009407   -6.58263091856537
C           2.53697642885542   -7.25416273690206   -6.83790980264116
C           3.12127069459481   -6.72350837124025   -5.69201588236736
C           3.89869624949150   -5.57537907032040   -6.00128681283876
C           4.61717342586641   -4.83554509843801   -5.04860903334105
N           5.21251075756963   -4.23150114849078   -4.27629549832793
C           3.89123866736825   -5.27430184316870   -7.35948341042267
S           2.92573472625270   -6.40698229817107   -8.28221377298058
C           4.53571218442922   -4.18171350489054   -8.01252231126081
C           4.70638889707678   -3.99619658447035   -9.38012267507200
C           4.23440651296033   -4.88029411250684  -10.36248714136049
N           3.83218721745001   -5.58069170960672  -11.17758799245248
C           5.37308206707028   -2.77865227416812   -9.68485065753802
C           5.65481194849710   -2.05603564441885   -8.53177037295895
S           5.18172307529013   -2.84634555110420   -7.08049687668043
S           6.39295948740820   -0.50869831068407   -8.79551314509097
C           6.33502252252260   -0.83038308907557  -10.49621739437312
C           5.79547861832108   -2.06814286314825  -10.84545914859838
C           5.81076377446479   -2.25774535042283  -12.24932991348824
C           5.52679213087779   -3.46221771923051  -12.91054910337421
N           5.35983885763463   -4.43684601599360  -13.49201946972426
C           6.31005558287932   -1.15096963303227  -12.93170625098934
S           6.83819497943162    0.10854136733618  -11.84006611204079
C           6.48962210259572   -0.96413315167573  -14.32769272083616
C           5.83882278377900   -1.54252507065860  -15.36820142193088
C           6.48264654583023   -1.50035012468575  -16.72025364913253
O           7.39647945142544   -0.78684642589768  -17.05538417614130
C           5.80124101544840   -2.54945732869904  -17.49948964225684
C           6.10902826688604   -3.03721022382360  -18.73751667743316
C           5.34246076974706   -4.10026782288844  -19.26483342240804
C           4.27577821448181   -4.64689523813094  -18.49210037236018
C           3.53101311920790   -5.72251994320014  -19.01658804081633
C           3.82616308740221   -6.22717663135010  -20.25182569932814
C           4.87693976700118   -5.68185834085380  -21.01756806843773
C           5.62020073357826   -4.64114642628109  -20.53559904656269
F           5.14275047055003   -6.19577652626313  -22.22541072694088
F           3.11755276323199   -7.24797692950340  -20.74984313350579
C           3.97171141001170   -4.11327921534220  -17.21922841034542
C           4.71735605170117   -3.07153317648948  -16.73695155110843
C           4.62834043245570   -2.33278945118485  -15.48257110187101
C           3.50723249342406   -2.23751879787934  -14.70477713872374
C           3.40260143531045   -1.39035670768820  -13.58495129737954
N           3.28325954069417   -0.70300848480871  -12.67323868022345
C           2.30468309401186   -2.92434253109684  -14.97919163650472
N           1.29988949633452   -3.44321484450909  -15.16971956302527
H          -6.79573560133038  -13.74643576693686   -6.22734684428174
H          -5.28577753793345  -12.70817122747146   -6.37650014544139
H          -7.32875634953461  -14.81078169993591   -3.84728131293788
H          -6.35590743905389  -14.88997686493728   -1.46619595646389
H          -5.06589906189698  -14.64459366973418    0.49069429035637
H          -3.32411931029046  -14.00158060098940    2.27094281346924
H          -1.10061618980986  -12.53739039962922    2.52924225727848
H          -0.41670651839258  -11.30037456447925   -0.07152964189942
H           3.41730163947092   -8.87933361574328    1.63913400165646
H           0.98267093726466  -10.29608096820632   -1.09572647249452
H           3.05862613074446   -8.12669512864794   -0.50764881197953
H           7.29941411336045   -0.29690255663896  -14.60979896707421
H           6.93001306411693   -2.62372833929170  -19.30328099356002
H           2.72271805523565   -6.14944541470294  -18.44388060408061
H           6.42233440451840   -4.23702567849737  -21.13310674932056
H           3.17260947750932   -4.55302147789603  -16.64449856923370
