91
 SCF done       -174.278067210424          0.000574859091
C          13.86140826297653  -12.88143070856013   -5.49178131565442
C          12.92699041543478  -11.92933736990949   -5.62108131325936
C          12.87923345052759  -10.87028944535863   -6.58774309894940
C          11.80400554441869  -10.05915150732355   -6.47352950902946
C          10.91899619988032  -10.40619837941095   -5.41513848464156
S          11.51175302983992  -11.81508599835986   -4.56283674083206
C           9.74711646059195   -9.77307091481795   -5.06668908997621
C           9.14969920480407   -8.64518009714194   -5.67512790621598
C           7.97148782664439   -8.27400362039082   -5.10585853796411
C           7.56495387723051   -9.07308439332974   -4.00618537188710
S           8.75888483482095  -10.32782131031907   -3.72811847967826
C           6.34923565130346   -8.93145413981730   -3.37462946232169
C           5.76970473235362   -9.62051596427757   -2.30221503072333
S           4.03224800438452   -9.64514732592161   -2.24128190797632
C           3.97110021106798  -10.70002026996272   -0.85852751280571
C           5.28269946317619  -10.96541795530612   -0.40090893220387
C           6.29071080916737  -10.34109334786774   -1.20168223573162
C           7.63340382804870  -10.38777949724335   -0.79636377931015
C           7.97234554325144  -11.09940810825094    0.32033196796662
F           9.25386416374023  -11.14186403737908    0.72087987994995
C           6.99095339864528  -11.77104555165527    1.07276927331786
F           7.36393324177365  -12.46563240253648    2.15901743023697
C           5.66725828880007  -11.70053481564302    0.73472824023260
C           2.69242421088779  -11.10186033987698   -0.44448655431422
C           2.34487066526806  -11.97059737545550    0.55007323587446
C           1.01502248426691  -12.31150066765467    0.84666092556953
S          -0.32849330182378  -11.66660004732329   -0.06241720459531
C          -1.51019079978434  -12.56757979493032    0.86927106741416
C          -0.85482178650758  -13.32172901510887    1.85939743056694
C           0.55644613995997  -13.16360103510417    1.85083220228684
C           1.43574445110665  -13.81016649702221    2.81925310549995
O           2.65705230871825  -13.72735545449638    2.79300168632551
C           0.74348018493370  -14.57514940051007    3.87560950778267
C           1.50685000949189  -15.16189455004642    4.88289605747525
C           0.90363712520263  -15.88252529806300    5.89488750237940
C          -0.47658511131044  -16.03282276832433    5.91007497737710
C          -1.24394579565118  -15.46135842361107    4.91431063728070
C          -0.64755580197633  -14.72512853260429    3.89164247594944
C          -1.51415654029560  -14.14564074764382    2.84792641811855
O          -2.72315480155912  -14.37076657521378    2.85076005153322
C          -2.86756192417078  -12.49266346460714    0.50614331054430
S          -4.01582169021663  -13.72408945236561    0.94917737280289
C          -5.24473842507501  -13.08931389838746   -0.09297587996461
C          -4.81894283777449  -11.88401233465079   -0.69885076530369
C          -3.47968771738558  -11.54184108730444   -0.35514954429315
C          -2.95200413207161  -10.32903997995963   -0.82815671930131
C          -3.71229909940810   -9.53375482229428   -1.64363180658802
F          -3.20592372025298   -8.36930126713258   -2.08575606825324
C          -5.01573881242092   -9.90151775956699   -2.01736154205436
F          -5.72514063041613   -9.09807232534402   -2.83009939506196
C          -5.57307667044933  -11.05780248173045   -1.54266709994036
C          -6.48631437043475  -13.71641042217398   -0.24013450243287
C          -6.83682883420626  -14.88111995825247    0.39894786649631
C          -8.06744117095439  -15.51500554066815    0.24378704332000
C          -8.42384125077604  -16.68568146108586    0.87945840727387
C          -9.65103689931656  -17.37754085891468    0.75793799344144
C          -9.72958997076491  -18.51618325310957    1.50135216139023
C          -8.56382403810964  -18.78778001636916    2.25462411610790
S          -7.36359091584712  -17.53992929106046    1.98331901424884
C          -8.33055702661687  -19.85335390722287    3.09680362155441
C          -9.21504470169763  -20.92556564039480    3.39627663568216
C          -8.71378469051059  -21.83677583671487    4.26060154574277
C          -7.38351422781486  -21.55170234073126    4.71453967707755
S          -6.82347968537655  -20.04816714682735    3.96455468719997
C          -6.63468723839012  -22.26760071039675    5.56537752875535
H          14.70459739592977  -12.91763123700544   -6.15890131234492
H          13.79921888641155  -13.63444628681355   -4.72784353821797
H          13.65497839251477  -10.76497919751595   -7.32513274912513
H          11.60927030160021   -9.21631916647235   -7.11280085723931
H           9.59883833651990   -8.14630633091846   -6.51467897043937
H           7.37271298340635   -7.44486287035881   -5.43974226432621
H           5.68168450099797   -8.22645519687100   -3.85885633635131
H           8.39845788474356   -9.85157738302019   -1.32916794499739
H           4.95232431108020  -12.19809964212755    1.36554050465247
H           1.88075380516687  -10.66451969139788   -1.01823796593050
H           3.07862906015726  -12.46406065373845    1.16397979346190
H           2.57864111969422  -15.03417495994773    4.84731757266498
H           1.50570785935401  -16.32913830499863    6.67215729043679
H          -0.95107922053086  -16.59732750481320    6.69895967730829
H          -2.31839186367584  -15.56962799737508    4.90368278319786
H          -1.97346107666478   -9.97948414956960   -0.54827459630612
H          -6.58353149513916  -11.31100881503219   -1.81761191115168
H          -7.20497427590713  -13.25608095879656   -0.90506680901619
H          -6.11666565014432  -15.33787526825404    1.06651502506213
H          -8.79990750306163  -15.07208832320136   -0.41920369973402
H         -10.43885120256112  -17.01147042626288    0.12302715046553
H         -10.58824766393084  -19.16270317475811    1.52748129497171
H         -10.19525543937736  -20.98231242907223    2.95718256396411
H          -9.23478344860075  -22.71313113610134    4.60301324244581
H          -7.01311656047135  -23.17660434109457    5.99848752628532
H          -5.64182884096113  -21.96177561335489    5.83954526673393
