91
 SCF done       -163.957081791317          0.000686042489
C          -5.47828713866967   -9.30827397600646    4.70467308993384
C          -5.22320067329547   -8.21179973005783    3.97931322861996
C          -6.16763682667352   -7.36672293978347    3.30362090241921
C          -5.61641019118211   -6.32622418379940    2.64366663893794
C          -4.19680050762489   -6.25331192101380    2.73653824784826
S          -3.58919740343155   -7.58241115242966    3.71264764401997
C          -3.36587717865053   -5.32293053695112    2.17220489571721
C          -3.72300158639739   -4.19849165889640    1.37702532314483
C          -2.66598232062300   -3.46850973385212    0.95410922393154
C          -1.39190973637494   -3.95554507566781    1.38424039641804
S          -1.62372473806230   -5.38839077019826    2.37633769863461
C          -0.19648203948327   -3.43824923759241    1.00045395812213
C           1.11648852811244   -3.88461351479483    1.36855488107673
C           1.43101991627924   -4.46288852173336    2.57226843542898
O           0.60618531123862   -4.57796608259164    3.62308194107048
C           1.00140336205472   -5.43487525631139    4.66785306382700
S           3.12028947180610   -4.89014571004465    2.68524659466446
C           3.40675242988735   -4.28167102725450    1.07996741599067
O           4.62645998550587   -4.33578334247360    0.51957046214031
C           5.66525635493886   -4.89952055960771    1.28575873663295
C           2.27079035245660   -3.76656560844061    0.49857603524247
C           2.18016353239131   -3.22471216389379   -0.82378612949559
C           3.18239408617763   -3.14311657046808   -1.72336147766695
C           3.09278184532366   -2.60154431960885   -3.03840801036793
S           4.44023403586861   -2.87841532200219   -4.10205818721211
C           3.70963748164023   -2.00150065415973   -5.41096055033162
C           2.46752511058092   -1.52310158946084   -5.02207376486717
C           2.12285644969633   -1.85622554298130   -3.69574323766557
S           0.67193192243968   -1.30375557256837   -2.86091406304216
C          -0.42653662532810   -0.52688370303913   -3.99693826213700
O          -1.43128832125681   -0.04949873766701   -3.53919984489572
C          -0.17264972624007   -0.46397444503243   -5.48226792517198
O          -1.05808752816003   -0.14476620951491   -6.22988398073302
S           1.42845271986024   -0.70149645359001   -6.18538585208829
C           4.41855226279540   -1.93218902802606   -6.64505046232566
C           4.18729245781408   -1.08354017072508   -7.66462796121028
C           4.93480449418910   -1.08902117103367   -8.89686392834050
C           5.18862503288359    0.08937388445592   -9.55417754012442
O           4.72452599827832    1.29226216654293   -9.17673212056253
C           5.10021968971289    2.40050472908973   -9.95847298050470
S           6.27240488241024   -0.11258441979851  -10.90285139086427
C           6.35782773607561   -1.82591773334410  -10.59314745454926
O           7.06677735929016   -2.66187041716868  -11.36910854808221
C           7.77750110276276   -2.09792527051365  -12.44358986025327
C           5.58110373153268   -2.21520385168994   -9.52764660623902
C           5.41125076511549   -3.61379951088898   -9.23670761013996
C           4.29000231582158   -4.16246823922385   -8.70993321542421
C           4.06289624724625   -5.53081638384398   -8.42672301502259
C           4.92384518343597   -6.59217360346465   -8.48100425468343
C           4.56805520502917   -7.93364113149255   -8.16170429638678
C           5.57868146848968   -8.83205709456696   -8.26165943460779
C           6.81407573665097   -8.26539245707650   -8.66837497811858
S           6.62632757698091   -6.53790526420160   -8.91827610098472
C           8.01109445730649   -8.90614408200159   -8.86457676751421
C           8.28603635708487  -10.29392233277325   -8.71014327389652
C           9.56403695922167  -10.64374511054194   -8.97281416354035
C          10.41167418351225   -9.55203154294836   -9.35961129046560
S           9.46380481099917   -8.05599597901812   -9.36478635130691
C          11.71301541618816   -9.59654034652389   -9.67509037844581
H          -6.48762878866754   -9.65498177024373    4.83917713545616
H          -4.69242287988905   -9.87368758902654    5.17066929268536
H          -7.22081883387982   -7.58199864501571    3.34529385687781
H          -6.17573893347472   -5.59697163600855    2.08449943703413
H          -4.74858410146753   -3.97028439434324    1.14782172121227
H          -2.73824446601662   -2.58916069518544    0.33793753636312
H          -0.24089943157496   -2.60748672840533    0.30881131506252
H           0.18659977661088   -5.42538591190467    5.38813821522581
H           1.92197104709728   -5.07384973229513    5.13962871550941
H           1.15847834223324   -6.45459405453736    4.30428976444862
H           6.56088573224178   -4.83942805432759    0.67094698908747
H           5.45204138564896   -5.94509518655170    1.52987172865552
H           5.81470574799650   -4.34132740412663    2.21573380929609
H           1.19807325471063   -2.87958384878276   -1.10203924193370
H           4.15455809852526   -3.53913112146417   -1.47184616064095
H           5.22998607216498   -2.64220347700035   -6.73154677211134
H           3.47577629571998   -0.27704662396662   -7.56674095663487
H           4.61474756220460    3.26517371366264   -9.51103270985000
H           4.76714148823359    2.28380063069163  -10.99513966752416
H           6.18659819984210    2.53876968734298   -9.94864670802039
H           7.09864974623102   -1.62062191406511  -13.15851265683031
H           8.30031274248452   -2.92146202737933  -12.92523290262457
H           8.50122133697335   -1.35454829192382  -12.09205688964640
H           6.22209130350066   -4.24164347020711   -9.57553565343963
H           3.45791437905623   -3.50717704034228   -8.48981789882486
H           3.05865839045935   -5.77800415599558   -8.10341281090725
H           3.56335835620401   -8.18163912533474   -7.86575163046999
H           5.47817314488873   -9.88227358475505   -8.05351114092231
H           7.51852464019649  -10.98456929206032   -8.40784568906849
H           9.95444636849366  -11.64411684710375   -8.90947515335105
H          12.25024450527669  -10.52828597578036   -9.65772806477728
H          12.25804773235756   -8.71341924947053   -9.95324035394055
