94
 SCF done       -157.026679331504          0.000614637263
C          -6.87289690293907  -22.60720735383518   -4.30035754190583
C          -7.65770825752850  -21.99554565970899   -5.19648585511393
C          -9.00052001933049  -22.33964488253838   -5.57068494164815
C          -9.54257024477453  -21.53825690935134   -6.51232006349232
C          -8.68168366714459  -20.49681897480433   -6.96338160199864
S          -7.14180426973718  -20.57978012352938   -6.12653684860076
C          -8.95086677757256  -19.54470596170064   -7.91280345401687
C         -10.13752482880456  -19.36799756103420   -8.67067631146578
C         -10.09332596365061  -18.33801982985240   -9.55236676585190
C          -8.86318395162415  -17.62624907714716   -9.55480434244718
S          -7.76483753749687  -18.32997731974467   -8.36174078631456
C          -8.52046151599493  -16.56903456796061  -10.33955869456733
N          -7.30651001157311  -15.96215149867916  -10.26129224345116
C          -6.83888051991715  -14.96807232001408  -11.04336133854720
S          -7.75161351278554  -14.32874602524971  -12.38066009219334
C          -6.41384143577421  -13.27898552295184  -12.77522056902653
N          -6.52443149471771  -12.36076287745921  -13.79401066612856
O          -5.56698097257368  -11.59211405912817  -13.95255412549970
O          -7.54509635701259  -12.33507786306955  -14.46453688057439
C          -5.33927372399855  -13.45407847617683  -11.93519588506145
C          -5.56757587612687  -14.39094984329293  -10.92662577014907
C          -4.57852431559903  -14.57753167663174   -9.89367641931808
C          -4.77747114796658  -14.81542233132903   -8.58858678998428
C          -3.69179840067915  -14.64305813919283   -7.64679270341254
C          -2.40947848959588  -14.97380535726126   -7.83340986814947
C          -1.91861154634405  -15.88590549449338   -8.91220338997191
C          -1.34069770320878  -14.40623068101135   -6.92769786416044
N          -0.18126527244000  -13.94418199895161   -7.66504793642754
C          -0.27952008354494  -13.18986970727150   -8.80636521557590
C          -1.31826435430593  -12.47543223962570   -9.25906215438994
C          -1.19288327589027  -11.78471561248846  -10.56254491115268
S          -1.84133607855717  -12.85229804454501  -11.95708280307778
C          -2.10039975724237  -11.42837918196328  -13.08103669489311
C          -1.88849938250393  -10.14213952778901  -12.27791584516283
C          -1.97390607773949  -10.50007388320490  -10.77177207991710
C          -2.95434757613472   -9.04059504966440  -12.52768662935284
O          -2.60747012977065   -7.87379897951760  -12.53768707667726
N          -4.23639598315096   -9.41536751287462  -12.61039535436268
N          -0.63721744355981   -9.48490077807255  -12.59579247845770
C           0.57516879280559   -9.94202353753692  -12.96564172439137
C           1.05244192315476  -11.21262890505141  -12.97323254936159
C           2.37152739239950  -11.62410721356408  -13.29054044789961
N           3.28983781781940  -11.01009168813520  -14.11497446347559
C           3.10181111994830   -9.82842303779199  -14.90997544135967
C           4.47228884084911  -11.76961342569061  -14.24349221161945
O           5.39726492175686  -11.42908225508246  -14.95720605531218
C           4.26447090431060  -12.91340803390034  -13.39204849478637
C           2.95960342686339  -12.79461407746823  -12.82660966039414
C           2.75541815071384  -13.89009905762990  -11.92760129359036
O           1.84267971238189  -14.19653721889286  -11.17488494832813
N           3.94433042692922  -14.64078023003925  -12.03245993231271
C           4.12760056892961  -15.85625279812728  -11.29095680232634
C           4.84939605945462  -14.06516500836723  -12.89816024249683
C           6.13813655360002  -14.63390667516399  -13.16817992311463
C           7.01364679498368  -14.08458945996091  -14.01180765817794
H          -7.22574854435110  -23.46608513715389   -3.75739160781973
H          -5.87501841493008  -22.26556614776875   -4.09557254086133
H          -9.49732311383618  -23.17721417815211   -5.11425371300739
H         -10.53578984481136  -21.65287348694311   -6.90854785410754
H         -10.98670051985949  -20.01388977723939   -8.53953579122883
H         -10.89725246995768  -18.05985352383161  -10.20994653078738
H          -9.21449152343465  -16.17045404943392  -11.06420518254574
H          -6.65089704634186  -16.33582762737701   -9.58088864479427
H          -4.41021125699655  -12.92362799069596  -12.03753987787567
H          -3.57901169868307  -14.32572375743795  -10.21884387135885
H          -5.77035799941572  -14.94760865417324   -8.17532863218408
H          -3.96128158853852  -14.09199936710064   -6.75216724007048
H          -2.73634948698360  -16.45890536395163   -9.34028346876927
H          -1.18199683062313  -16.57444290916522   -8.49816727075294
H          -1.43175430891203  -15.32747685275591   -9.71218862946264
H          -0.99787272536697  -15.15966860944979   -6.21178714307308
H          -1.75475084986164  -13.56632638181268   -6.35850446997912
H           0.59222701191354  -14.58889444767236   -7.68403121296040
H           0.63544700443734  -13.18504879492867   -9.38508396782664
H          -2.27848417412185  -12.45795478878740   -8.76877339435418
H          -0.13621089970943  -11.62662952252951  -10.77607190620314
H          -3.10250316392044  -11.51375393301827  -13.49751199375905
H          -1.38857959343014  -11.49179316926074  -13.90332253261852
H          -3.01966418371522  -10.65130000656197  -10.49366066473240
H          -1.56357198336342   -9.68915530100787  -10.16894426257599
H          -4.54131347880857  -10.34255829227420  -12.87650270716981
H          -4.89528150780183   -8.67504551316210  -12.80134551072258
H          -0.78137397949696   -8.47794763624580  -12.62326284783101
H           1.24376760761933   -9.13381806972408  -13.22829620208396
H           0.45477682744764  -12.04339611147886  -12.63474987990221
H           3.22176984649891   -8.91955127930669  -14.31417163403576
H           2.11816197030550   -9.83198546545785  -15.38171471465384
H           3.87799261888504   -9.83811677874109  -15.67736555236620
H           3.20954557683904  -16.01322522146091  -10.72290850075844
H           4.96906442117987  -15.77659989918481  -10.59828134290359
H           4.28564040043520  -16.70710536638041  -11.95768075206906
H           6.37866000265446  -15.55296033708855  -12.65004761208727
H           6.78908747283944  -13.17094177429678  -14.53538827412169
H           7.97294187907154  -14.53683895155972  -14.19552922262806
