96
 SCF done       -169.488580094083          0.000898793329
C           8.58833493870908   -7.17684765257002   -8.81312808108524
C           7.85932903435853   -8.02346979498043   -8.07542164033893
C           7.00510658106667   -9.08139488991615   -8.53826955753749
C           6.38676696744174   -9.77122820123606   -7.55746645492769
C           6.69736992717844   -9.32459526890153   -6.23879065389249
S           7.82022115750421   -7.97894825032362   -6.30446210064006
C           6.22116857754443   -9.82346060468350   -5.05509532103542
C           5.25007519865487  -10.84159146605081   -4.85828926151104
C           4.97379608727018  -11.09885881191919   -3.55910586522989
C           5.69749852339752  -10.29158263240544   -2.62885329535445
S           6.78030474793186   -9.21455245352195   -3.50334474017026
C           5.58934870622060  -10.39729110479730   -1.27836922404382
N           6.15459071422052   -9.60484947205967   -0.31011337690170
C           6.62971116533097   -8.33205895362709   -0.41165860157409
S           7.95796067720910   -7.89084741790087    0.62952602046304
C           7.99236346006373   -6.31204302823408   -0.08906309235779
N           8.92281074787720   -5.39372038758779    0.39679852788224
O           8.94359119836789   -4.28372243014239   -0.10675115854247
O           9.65245293646121   -5.77328052053580    1.30017603187635
C           7.04495392351203   -6.14864956788430   -1.06334403781646
C           6.22644948370699   -7.27939970781850   -1.24239092639911
C           5.11173662423850   -7.27539404495744   -2.15764163447521
C           3.99209848989007   -8.01170509049066   -2.02226687088074
C           2.97429439801708   -8.12138082716569   -3.01927648150567
S           1.54861783750194   -9.07539479386877   -2.66183037066053
C           2.96125668033713   -7.65300819381108   -4.30278902326011
C           1.81628923141011   -8.03329031867678   -5.04763175493934
C           1.50181290751100   -7.72946159994016   -6.39690290777151
C           2.49442093754705   -6.88631019555294   -7.15173414338480
C           3.65685509591021   -7.73451052875535   -7.67007564771586
C           0.34181402987568   -8.23008319018671   -6.95681854700390
C          -0.04812371992596   -8.02372842837380   -8.39588191169316
C           0.27535828185258   -9.26063202284421   -9.23704594107536
C           0.94808129428138   -8.82124290515803   -4.26853599143676
C          -0.22440511382396   -9.29763597749089   -4.82382747560631
S          -1.44871142881626  -10.26469218935849   -4.05363134345399
C          -0.53164830420050   -9.01654385927844   -6.16416065366560
C          -1.77081354886759   -9.60129969698870   -6.55046635320093
C          -2.37551591211172  -10.28846376742911   -5.54530025063062
N          -3.55225378512001  -10.99660046116835   -5.52009269542516
C          -4.34298940498871  -11.39142906226269   -6.54570369639717
S          -4.05265220837351  -10.93303537756161   -8.19030577132644
C          -5.51201456679201  -11.74556645295948   -8.67301510480146
N          -5.82453992251726  -11.73673880040495  -10.02741868488654
O          -6.84909370016779  -12.29360336449007  -10.38559252049587
O          -5.03551746729421  -11.16451009667279  -10.76833442344804
C          -6.17713040369799  -12.31811120035730   -7.62171216110192
C          -5.51515421979297  -12.15274555791225   -6.39163325380544
C          -6.03612983187645  -12.70543933131631   -5.17074184608263
C          -5.33097186362648  -13.09692095244885   -4.07987318244290
C          -5.86572536446041  -13.61924076287504   -2.87531060411031
C          -7.16765697317617  -13.69973104535641   -2.46221689482095
C          -7.58176993726718  -14.24205032587849   -1.21136972170734
C          -8.91876551455586  -14.20459017325289   -0.98783377988588
C          -9.66453211440634  -13.62817996543262   -2.04756448960104
S          -8.58246896988768  -13.13743642898923   -3.33967338878693
C         -11.02260823250483  -13.45387145208117   -2.13350875882978
C         -12.00518122464431  -13.82597339194443   -1.17092547960773
C         -13.27348158044138  -13.53241469604825   -1.52819697579386
C         -13.39855905076194  -12.89874597565292   -2.81080245879060
S         -11.78816055040689  -12.70788515902465   -3.52315865722383
C         -14.52118995453650  -12.49534105441774   -3.41917642996735
H           8.58221167781630   -7.23919257208986   -9.88702360690655
H           9.19726864453608   -6.41416065455333   -8.36348431780491
H           6.89496519339118   -9.27384196830574   -9.59067072010615
H           5.71551185044643  -10.59492922602054   -7.72323206918188
H           4.77882195772078  -11.33860601482245   -5.68703232525937
H           4.25751699988832  -11.82515069096562   -3.21869429244441
H           4.98842678348597  -11.20611397710187   -0.88369142098003
H           6.35208343309729  -10.06517657261708    0.56920075163447
H           6.92442133277190   -5.22619113622329   -1.60218732916189
H           5.21768687689714   -6.60781293775901   -3.00015625499714
H           3.82643890307727   -8.58821906175794   -1.12373379430472
H           3.76569816168590   -7.06453163122052   -4.70224933696537
H           2.02000863678681   -6.37904035256777   -7.99028502650556
H           2.88220062074600   -6.11317065826479   -6.48621213211054
H           4.39785563476998   -7.10647761230415   -8.16010942642171
H           3.30232270740515   -8.47092830134454   -8.38716513205399
H           4.13756376487845   -8.26311984198412   -6.84999060551977
H           0.46712446395339   -7.16477662951373   -8.82155926977630
H          -1.11862835686691   -7.81976943150372   -8.45338089511243
H           1.34566016285725   -9.45243219933587   -9.23433471376180
H          -0.04684485841938   -9.11091993153504  -10.26447215977037
H          -0.22810824314557  -10.13937970634629   -8.84205347056409
H          -2.19446542694279   -9.48697674439059   -7.52814565568984
H          -3.89312281791632  -11.25139834197418   -4.60015138108049
H          -7.09760494712132  -12.85949402294887   -7.74403413660110
H          -7.10271674826981  -12.87206966824147   -5.18919547355245
H          -4.24769945821882  -13.08460617543899   -4.11243188489188
H          -5.13849059840441  -13.99413290493528   -2.16562873967608
H          -6.86223235788239  -14.64228274363211   -0.51840236650483
H          -9.39314898514221  -14.56833628023356   -0.09404181769452
H         -11.72887812220493  -14.30135430011538   -0.24638830757569
H         -14.14546567984989  -13.73892220162760   -0.93323416989225
H         -15.47906576838237  -12.63151379766445   -2.94872454157151
H         -14.50523113123340  -12.02959037503491   -4.38713888669408
