82
 SCF done       -153.347759815087          0.000706481552
C           9.66873519898997  -12.20693295367645   -9.63345555122200
C           9.97071295875645  -12.75131724738435   -8.44801966442752
C          11.10888481166155  -13.56132798436235   -8.11576861888656
C          11.14539029019910  -13.97732953829252   -6.83208342808905
C          10.04616465139203  -13.53620467974591   -6.04055070556095
S           8.95853757110355  -12.55619639674875   -7.00805692219395
C           9.80855324687240  -13.80900283987347   -4.71838156394645
C          10.58666540911988  -14.59232828956304   -3.82654614548636
C          10.07449548849474  -14.69549195005940   -2.57490932813592
C           8.85073595215588  -13.99717373179632   -2.38671994978202
S           8.38882251107798  -13.18980345057397   -3.89090107561478
C           8.09814529403881  -13.93198301638663   -1.25585372418933
N           6.93688730968958  -13.22500453961715   -1.19347777941163
C           6.08044677192489  -13.15507508246299   -0.15353694920770
S           6.34390008571784  -14.06203909161119    1.30151038485502
C           4.84664761170524  -13.44384865427801    1.93516435278898
N           4.48328656112498  -13.83763184163598    3.21886501785873
O           3.43840114583155  -13.40241358899596    3.67465219621201
O           5.25099914726319  -14.59239320487226    3.79982826554343
C           4.19675273449750  -12.59930309723308    1.07341259733637
C           4.88902126724295  -12.40629371494017   -0.13409435068952
C           4.49007039263711  -11.53787686586416   -1.20336962070671
C           3.26160600181187  -10.99404625898085   -1.34427510285124
C           2.90414025866570  -10.10556641231219   -2.39333701011964
S           4.08222696242685   -9.60574826168818   -3.57419007772192
C           2.94787738025393   -8.68862419088540   -4.44439050858955
C           1.69560108866308   -8.74181048374267   -3.87571593501119
C           1.65778159448320   -9.54130321304247   -2.68358869557364
C           0.41557586086222   -9.68582569465091   -2.00905389890273
C          -0.70278937528257   -9.08884853753306   -2.53073978921532
C          -0.66286667691782   -8.31900594044912   -3.70586003844991
C           0.51288214424600   -8.12624979385787   -4.37628781238045
O           0.62633514524957   -7.38804037811755   -5.50673147814148
N           0.32455922954922  -10.44916591340346   -0.81619202853602
C          -0.71691639988673  -11.29808594665771   -0.59432651548746
S          -1.43281761285923  -11.41202740466393    0.98041674575112
C          -2.54517546581307  -12.60435992828504    0.37675069253342
N          -3.46591693742934  -13.14444180104331    1.27177253814842
O          -4.24356994272065  -13.98427921995006    0.85008715415323
O          -3.43157370491525  -12.72731484044997    2.42009725966462
C          -2.36686686069462  -12.88294308646903   -0.95216579810771
C          -1.31037234716749  -12.15550079419444   -1.53364356118291
C          -0.83198552026131  -12.29884026494556   -2.87728070265968
C          -1.47108126043988  -12.95016282795023   -3.87917512518698
C          -0.93252234829358  -13.05910439474491   -5.17898110239274
C          -1.54490195625300  -13.68448632947498   -6.22833247945174
C          -1.04249086475456  -13.80898856447378   -7.55246459335371
C          -1.85920057028686  -14.48002890746413   -8.40271229050520
C          -3.06524685647803  -14.93440161069253   -7.80882381757557
S          -3.11628837896442  -14.46844800360298   -6.11798526776173
C          -4.08103771849428  -15.63939613340355   -8.40475816317955
C          -4.15365946315985  -16.06917464730839   -9.76077462383426
C          -5.27672526923473  -16.75211749043509  -10.06990580633441
C          -6.18988726576309  -16.92002549060406   -8.97503327443622
S          -5.51600919011040  -16.14380203624979   -7.53284058845368
C          -7.37079179637945  -17.55196474272568   -8.98279261945163
H          10.31201580297528  -12.35149876977488  -10.48328064532837
H           8.78386028207502  -11.61396421567937   -9.77523010130719
H          11.84905122607796  -13.79514551727415   -8.86026099215281
H          11.92399158566604  -14.59071553293031   -6.41439034723808
H          11.50162345990141  -15.05848035838968   -4.14436455835129
H          10.52546612389864  -15.25091182475726   -1.77240442145587
H           8.39940978990590  -14.45091463867748   -0.35878164127223
H           6.67722425775364  -12.72270186974460   -2.03611584451726
H           3.26588511750752  -12.13169389799562    1.33497831394757
H           5.24375107180530  -11.28901560119353   -1.94048876212111
H           2.47601559899079  -11.25907881066089   -0.65495564066440
H           3.23572790409175   -8.15852012681693   -5.32898905565952
H          -1.64787200169819   -9.20959036323833   -2.02347451417962
H          -1.57647257672451   -7.87034858115353   -4.06850000295788
H          -0.23519526754258   -7.02728278263115   -5.75092597690052
H           0.70803497915517  -10.00591269458505    0.00923301088512
H          -2.96595350290778  -13.61121969948033   -1.46675758786565
H           0.12755269742000  -11.84978179914683   -3.09069060239983
H          -2.43957398665011  -13.40042491933920   -3.71220214572200
H           0.03561221863980  -12.61067544370655   -5.36332787857238
H          -0.08792283471269  -13.39308251924392   -7.82382074860135
H          -1.63482800797188  -14.66506908206359   -9.43792300197229
H          -3.36406167860944  -15.85331632857668  -10.45871864764167
H          -5.50604681829380  -17.15400041746331  -11.04100383962969
H          -7.74173832411977  -18.01120474136140   -9.88213948823881
H          -7.98049541205425  -17.62200815995005   -8.10088800230368
