84
 SCF done       -147.227181948665          0.002752627757
C          -4.48855302972165  -15.73075749062239   -2.17835426725319
C          -4.08658665699732  -15.11753266970828   -1.05919882955735
C          -4.76603557180910  -15.05693543724993    0.20475098255486
C          -4.12091121076030  -14.34801153600754    1.15406177482663
C          -2.88694005812014  -13.77535788866338    0.72673112857249
S          -2.56287827830770  -14.21404287486967   -0.93915476022454
C          -2.04818867341360  -12.97509098925593    1.45648154998181
C          -2.14517509710804  -12.62322388454956    2.82732988907847
C          -1.14412638003436  -11.82812122742819    3.27927663838057
C          -0.18918123884589  -11.47117065494166    2.28994319178351
S          -0.62377228195324  -12.22550357598753    0.74889030038470
C           0.89426743108136  -10.66337251782915    2.43427052973523
N           1.68875797937834  -10.33425111107572    1.38041009248708
C           2.75959537424795   -9.51650627748057    1.36990090195238
S           3.41958340576394   -8.85693520696606    2.83007167486303
C           4.60125256989640   -7.99737158272525    1.88306925966223
N           5.46846070294716   -7.15780961986944    2.56087642111190
O           6.29130408829372   -6.52982178839169    1.90881811801944
O           5.33395114701447   -7.08837817218116    3.77773771376128
C           4.48291637180207   -8.21864229022096    0.53263118207674
C           3.42954299483967   -9.08381964621629    0.21120256342001
C           2.97430187496468   -9.42484054036646   -1.11247227165568
C           3.30568419927951   -8.78669675627047   -2.24538634935697
C           2.65596676202337   -9.05409321137448   -3.51045477218316
C           2.28743256122070  -10.24056831801386   -4.00521081519161
C           2.66899169400498  -11.56693692248925   -3.42533132471000
C           1.41902740672630  -10.32147689965340   -5.23617976438442
N           0.19118373012328  -11.02064811369120   -4.91238835105652
C          -0.54264438701276  -10.69524837769686   -3.81159257033874
C          -1.77927438031104  -11.15012616069387   -3.54898523693688
N          -2.41577449468374  -10.86819874645427   -2.35248952574719
C          -3.62820378759871  -11.29657142941569   -1.99046597172322
S          -4.59172469006403  -12.23229459753756   -3.09733264440025
C          -5.77949047391582  -12.47974838956646   -1.84581784453455
N          -6.84060805427720  -13.31565766083488   -2.12665820638570
O          -7.64163778312329  -13.55398909387837   -1.22922862071848
O          -6.89537897614172  -13.78919453987185   -3.25842650555248
C          -5.45744116889478  -11.84623292675246   -0.67345242587529
C          -4.24478333676017  -11.13881110435766   -0.72482962788469
C          -3.74770381093102  -10.45022409858980    0.42397825183047
C          -2.71816228645356   -9.57009963618141    0.52782866546632
C          -2.28036167302448   -9.03422545175204    1.75583037796324
C          -1.19372217367559   -8.21550755314233    1.88698681234865
C          -0.66107427347206   -7.67665095154943    3.08659488934688
C           0.44497216008990   -6.90664226942643    2.91975744090590
C           0.86147065992568   -6.77343352928063    1.57127576725710
S          -0.20407648362529   -7.69475446176881    0.52067360946138
C           1.92099873827996   -6.05305203477182    1.08235920367193
C           2.88425240727958   -5.31279480456692    1.82717475044842
C           3.84523888559375   -4.73357015612798    1.07558746016903
C           3.71994300002417   -4.97122217542815   -0.33407694946999
S           2.27566437402717   -5.95521032063659   -0.63104786700898
C           4.53385513923764   -4.55399878934366   -1.31141263486010
H          -5.42646476146118  -16.25639795312376   -2.20812910489385
H          -3.90869118711319  -15.70361398127573   -3.08284411164083
H          -5.72048142267089  -15.53521201082287    0.33339128572542
H          -4.49152107592302  -14.19483454460702    2.15186983498349
H          -2.95039823078443  -12.98625925224825    3.44020024299419
H          -1.05230692364924  -11.47239737632746    4.28974392084057
H           1.14628835775978  -10.23332650078447    3.39104843630984
H           1.39128718329725  -10.70249382482390    0.48293847165156
H           5.14164775689011   -7.75468101662329   -0.17805874353043
H           2.22984832051101  -10.20699695128946   -1.17374727200713
H           3.98262740066335   -7.94477505615403   -2.21920233462352
H           2.41936669513402   -8.16202234305904   -4.07909157647350
H           3.49559506469953  -11.46419595535708   -2.72801992809537
H           2.96575904032534  -12.24096352135656   -4.22777366320928
H           1.82757612768591  -12.03118481848105   -2.91114072127922
H           1.92351887238659  -10.89211544817784   -6.02166714805053
H           1.21676685494360   -9.31191657377650   -5.62231474957618
H          -0.29902707319382  -11.47307998949872   -5.66723328892222
H          -0.03035380853660  -10.06058306507337   -3.09812492454593
H          -2.32660750978464  -11.77550600541174   -4.23468173592318
H          -1.86263502641364  -10.39470059967532   -1.64741380313555
H          -6.08879172262430  -11.90040668240107    0.19509944182731
H          -4.28745004439728  -10.67886243208946    1.33478475023157
H          -2.17865057432707   -9.21699711118842   -0.34054651338094
H          -2.81218847196968   -9.30926330093710    2.65644098026608
H          -1.12391314091264   -7.87903524859195    4.03662838280185
H           0.97326614366427   -6.42292522487135    3.72148608513123
H           2.83481053184033   -5.24974804185878    2.90011214771706
H           4.66574259384404   -4.15575483718356    1.46086279541727
H           5.40410291451484   -3.96632660798060   -1.08190546907126
H           4.34910216819072   -4.79073726152576   -2.34365469226380
