72
 SCF done       -143.082597107499          0.007631500063
C          -3.04679323013305   -9.27817084386519   -7.95950089862491
C          -3.12342541990459   -9.76276446319108   -6.71325848051755
C          -4.23782088378215  -10.42439881424652   -6.09433966892509
C          -4.02889644358276  -10.78103169835420   -4.80948500979155
C          -2.73402040824434  -10.44305640893470   -4.31704079872120
S          -1.78984945189142   -9.65181181209782   -5.55612401099198
C          -2.24413586223739  -10.66693647861291   -3.05302740775790
C          -2.88814208824006  -11.26105664895906   -1.93948525943521
C          -2.13655019421669  -11.30234916059801   -0.80869173174745
C          -0.84246027689443  -10.73606182328271   -0.95476831169488
S          -0.61848451708751  -10.17927126827867   -2.61680144592319
C           0.12297551572124  -10.57198032186767   -0.00726596345422
N           1.30291954217091   -9.96529316016740   -0.31778712307534
C           2.33843831567298   -9.68378452010774    0.48967800697155
S           2.39485123313576  -10.25858611578447    2.12842332122900
C           4.00670417650563   -9.61424512551192    2.28098744629222
N           4.64104700981071   -9.78508779795487    3.50538413823535
O           5.77992832947287   -9.36208546132568    3.62796642522469
O           4.00099982430950  -10.35955976000086    4.37701012886134
C           4.45666532643258   -8.99975219495037    1.14171268155697
C           3.51030317615141   -9.00038392105218    0.10278563214971
C           3.76302086646724   -8.39290052967049   -1.17317370700017
C           2.85479815942852   -7.97243787922222   -2.08076291804453
C           3.18305251246697   -7.45897691660051   -3.36753037811609
C           2.26697453189527   -7.10259670344865   -4.34875790221968
C           0.88565206937132   -7.12110608789516   -4.10441442742451
N          -0.23225050778947   -7.10768104537866   -3.84751647142169
C           2.89276216372041   -6.68612211255890   -5.55551602881101
C           4.27658920498665   -6.70643548087712   -5.43700480824440
S           4.83712598634189   -7.26280008582741   -3.90697366439177
S           5.14219172078365   -6.17290867082406   -6.84143794326441
C           3.61484382707867   -5.93606881046375   -7.62576466323880
C           2.50299441893995   -6.25309762188186   -6.85525991858445
C           1.30006480517419   -6.08266184813238   -7.59466752470829
C           0.01734083767407   -6.46879270964107   -7.17884920891092
N          -1.02667110878319   -6.84505913924542   -6.89195238060275
C           1.54035667242394   -5.62103439662671   -8.88117948277983
S           3.23535957158046   -5.41199149467151   -9.22320745479269
C           0.55476300931626   -5.29366539324614   -9.85835547446682
O          -0.73084359528330   -5.12829337661898   -9.47731288428680
C          -1.43698075463873   -4.80100375666741  -10.56776208046290
C          -0.64586035023553   -4.75490663266533  -11.67295359075572
C           0.65860460174304   -5.06953115133409  -11.22174534344729
S           2.08102609945470   -5.30525312058325  -12.21188773954551
C           1.86938723842085   -4.03602224359028  -13.35685099214388
C           2.27210699687744   -4.00032991438352  -14.65814785601090
C           2.81457627005609   -5.00270191313014  -15.50723517412201
C           3.03637811016645   -4.71052972225226  -16.81038319858071
C           2.75680564328828   -3.40958784394067  -17.33800129919392
C           2.25260018761998   -2.41351086084082  -16.57018497166695
C           1.98961835517403   -2.65932247431610  -15.19303381295675
C           1.49419016386638   -1.85693475169988  -14.20481801552050
C           1.40976220017214   -2.62005936322130  -12.97384160465157
O           1.12279637556450   -2.26858401039992  -11.85424856440720
H          -3.88079641415603   -9.36293416516162   -8.63528943007176
H          -2.16830017339049   -8.76530133068752   -8.30861820404983
H          -5.14982597809315  -10.59160623145793   -6.64025970160293
H          -4.75451322867640  -11.27385125807560   -4.18742206691260
H          -3.89410215938192  -11.63421523994403   -2.00759108528353
H          -2.46494407315169  -11.70865858563711    0.13101933330583
H          -0.01797521175702  -10.88839922320349    1.01419587397481
H           1.41708003066750   -9.72198725260950   -1.29705437224516
H           5.43016908315269   -8.54828910452837    1.07889025686109
H           4.81235913268397   -8.24895244155099   -1.40357097852566
H           1.79273991923509   -7.97279398924578   -1.87354919371552
H          -2.48509576127609   -4.62545263961044  -10.43438788104666
H          -0.93332222324018   -4.52342319490288  -12.67573707713387
H           3.02024637514912   -5.97867396166676  -15.09337690805738
H           3.42957039725884   -5.45957869470664  -17.48097654357251
H           2.95498165709511   -3.23991683771025  -18.38467285223274
H           2.04453479750304   -1.43953018417186  -16.97850695327574
H           1.16877387362471   -0.83588980382974  -14.29063240232036
