83
 SCF done       -150.965365988502          0.000475769586
C          12.38177945576558  -11.29148209024869   -1.21609519408429
C          11.88333648903708  -10.09607083118343   -1.56047733867440
C          12.60949006422923   -8.90056847145256   -1.87932955548540
C          11.83058356712263   -7.84228617384810   -2.19586940869838
C          10.43375011985655   -8.10818221505625   -2.15491830776188
S          10.14647396731592   -9.77226881397822   -1.68972576615233
C           9.40965895478027   -7.23305761404495   -2.43445215325749
C           9.50654255129066   -5.87719153396469   -2.82792783832440
C           8.30369411432658   -5.28124863621042   -3.04566679210727
C           7.18457859484358   -6.12537621944278   -2.83838073707825
S           7.72389081433660   -7.71705512582985   -2.34382141712575
C           5.86932146886098   -5.76137347094375   -3.01101351579867
C           4.73462301639616   -6.55198543850946   -2.82810301559777
S           4.79436959159587   -8.19637829770571   -2.28170451648644
C           3.06537034148453   -8.38577553516309   -2.30236769321544
C           2.45183981066444   -7.20941386212454   -2.77054209343854
C           3.39113063145507   -6.16894161993724   -3.05128623382773
C           2.94650371562826   -4.92323215094870   -3.51936154231207
C           1.60973712734666   -4.72545425388261   -3.72583756007218
F           1.16899597469697   -3.53637660063456   -4.17483137980869
C           0.68473466371304   -5.76237557460360   -3.49598548270427
F          -0.61946999425316   -5.54661714448259   -3.75056253555673
C           1.08666434717280   -6.98239581365470   -3.03183568677229
C           2.55484780411587   -9.62706947826215   -1.85041799400215
C           1.28223172772302   -9.93344253656373   -1.50001084795648
C           0.91610512072210  -11.23974959119458   -1.05279028309141
C          -0.30692427547207  -11.62274117432902   -0.64862069467233
C          -1.50083455836252  -10.72048394335184   -0.58293558447631
C          -0.58694950028469  -13.04333344057946   -0.20014871355441
N           0.34648893252366  -14.03255437054328   -0.66592133883231
C           1.54164012565198  -14.24111985408652   -0.07265690988897
C           2.52818788724607  -15.01668962574378   -0.59918484269214
C           3.78168413915427  -15.28585360823221   -0.01190594442259
C           4.37282519844086  -14.72540905647278    1.09130802122641
C           5.64393814161292  -15.08760935853570    1.60546075143653
C           6.04867123542615  -14.37283742370699    2.69029875146362
C           5.12468936155999  -13.38726615773790    3.10513720138239
S           3.71520227221147  -13.41402104661501    2.07061987706175
C           5.23441261551132  -12.49649578940309    4.15248062401545
C           6.28065965207178  -12.37581983046261    5.09258395774443
C           6.09029004358505  -11.38736059247455    6.00811087141512
C           4.88223804917801  -10.66131359356326    5.84317956742168
S           3.98898808339501  -11.29820722696252    4.47549726699083
C           4.46090592984683   -9.61350850912403    6.61728302868374
C           3.28067492459963   -8.86506160929651    6.46610199118434
S           2.06608570961632   -9.12230794726794    5.22384623760864
C           1.05788759098275   -7.83268482746745    5.76194027428037
C           1.61316058619007   -7.21207228853878    6.85507409122966
C           2.85691647348630   -7.79888500343547    7.24070237903611
O           3.37810573836677   -7.16768516645637    8.31623396813434
C           2.48399988978878   -6.18851262334943    8.61961170899178
N           2.77185024922468   -5.35401227798108    9.71967547933146
O           1.95636305108969   -4.48270119853625    9.96955032320820
O           3.79737579639556   -5.55223665740377   10.33811419067795
C           1.39895415373220   -6.15699509339524    7.78260851686441
H          13.44451622418278  -11.44435455991917   -1.15066478324973
H          11.74428634958181  -12.12797338861203   -0.99639827817485
H          13.68472705657048   -8.88945353782568   -1.85707735208802
H          12.20730930478545   -6.87028832636624   -2.46063070063079
H          10.45473153707786   -5.38338628880899   -2.94051399542156
H           8.17960277526468   -4.25722813374220   -3.35172105092203
H           5.69981486153953   -4.74215678199646   -3.33080834054810
H           3.63558090252240   -4.12123514917650   -3.72662435899498
H           0.35111698556024   -7.75683017735862   -2.90484854139995
H           3.30632193577705  -10.40002944074526   -1.73455174521633
H           0.51298986871380   -9.18114391819179   -1.52638512329294
H           1.71868716504740  -11.96659251978373   -1.04785017839957
H          -1.21873845911545   -9.70436591744836   -0.32394132584555
H          -2.20709584503685  -11.08071663252545    0.16158103075611
H          -2.01228183326904  -10.69643600031988   -1.54609556700342
H          -1.58743525202030  -13.33155097528996   -0.53934288440547
H          -0.58915599136164  -13.06688821787223    0.89659194408043
H           0.26011285046847  -14.31156321295706   -1.63288608855000
H           1.64238041231151  -13.79519938488189    0.90476249326816
H           2.34106194453758  -15.49000436785632   -1.55516084046391
H           4.38411517951044  -16.03025894660151   -0.51843262660463
H           6.22190344450015  -15.87311301931075    1.15001260647847
H           6.98618119486720  -14.51798663260746    3.19618056639391
H           7.14051543638582  -13.02135031903194    5.06976249802427
H           6.77735506791425  -11.14786267582185    6.80028558748640
H           5.09586526261426   -9.30777156737111    7.43817697158742
H           0.14392486993690   -7.61939485106434    5.24944523419769
H           0.58041521409705   -5.47024666750853    7.84153468763184
