92
 SCF done       -165.986388554357          0.000818384378
C          14.17858561552425   -5.30020400224253   -2.23569709810490
C          13.68059920788755   -6.54288180183377   -2.26105394240651
C          14.40872529272112   -7.78123042860970   -2.24731722584297
C          13.63355110080076   -8.88548106640583   -2.27182107887968
C          12.23311622390949   -8.61841931742143   -2.30403288392780
S          11.94474342832871   -6.89027073152057   -2.31414700602075
C          11.21137584851675   -9.53231819365700   -2.32101160964938
C          11.29453531729160  -10.94910699687955   -2.28890301410314
C          10.09345900827793  -11.57438393661070   -2.30065982358374
C           8.96841494764810  -10.69547724052340   -2.33495804483420
S           9.52917966650306   -9.02869113761578   -2.36880614212276
C           7.67366250844543  -11.10809148420369   -2.41486270131571
N           6.53843444164270  -10.33943945913070   -2.41156660592616
C           6.33660329235875   -9.12785934746157   -1.83734145210130
S           7.27548507320035   -8.58186709118773   -0.48863851299107
C           6.27937345537341   -7.16130334447810   -0.38784498421113
N           6.59349892016611   -6.22998837578495    0.59689473330591
O           5.90568407840438   -5.22447884256549    0.67515810632058
O           7.54418718796699   -6.49214246406337    1.32049562214137
C           5.28279131822789   -7.12335735649390   -1.32709715589238
C           5.28424230797516   -8.24811111663686   -2.17151389049859
C           4.37568636393716   -8.50119739773145   -3.24295391269882
C           3.41391331931046   -7.64740895954034   -3.68188600576088
C           2.49440420398344   -7.89937418019349   -4.72395837312108
C           2.21061832766514   -9.07081703352680   -5.37608806591216
C           1.25762269184564   -9.20080615064719   -6.42254081750113
C           1.08600160402958  -10.46395882271799   -6.89083888202901
C           1.88772306149503  -11.43357064382584   -6.24175055476579
S           2.89091537669914  -10.65754398516263   -5.02961547169124
C           1.91706385436518  -12.78990256653054   -6.45956187031600
C           1.18631593808154  -13.52712207825156   -7.42638039622041
C           1.40122718361841  -14.86363844794009   -7.38433314248522
C           2.32105381513319  -15.29020824535767   -6.37802695038104
S           2.90639411856819  -13.87602453907916   -5.49912034428194
C           2.60682380108098  -16.58156650600016   -6.07044819328057
C           3.47826190229383  -17.08128768228431   -5.04415924828402
C           4.70417541853312  -16.65316658778635   -4.71033521136761
C           5.49301356934542  -15.63287508569340   -5.46290389752876
C           5.43972877969235  -17.27250129522811   -3.54063985897046
N           4.55769473566414  -17.78354983252832   -2.52687142847422
C           4.43074620063881  -19.06737627628956   -2.20622859748988
C           3.50688985290652  -19.53269933591299   -1.30685927311674
C           3.31156164374339  -20.85497300563686   -0.89259238381700
C           3.98126568875640  -22.03754300351931   -1.14435863067042
C           3.55043862714191  -23.30635607310931   -0.58683379435982
C           2.35585796952016  -23.59213405177941    0.02883350395576
C           2.01575040473293  -24.86080763618358    0.54099993194165
N           1.67230367442351  -25.86146020348895    0.98849902867179
C           1.27202533378906  -22.70906938954363    0.21232058321064
N           0.32730927608119  -22.07832345446586    0.38894663667524
C           4.59383622049329  -24.29370672759579   -0.85045916989148
C           5.60017715942884  -23.67665600872704   -1.62773651174837
C           5.23860334135114  -22.26462579344172   -1.86799182547544
O           5.90103609933630  -21.49101745255883   -2.54225217737880
C           6.72233162578698  -24.34186917609773   -2.05583369935616
C           6.86217917509575  -25.68510896504770   -1.69117806574001
C           5.85426837056538  -26.29301686696614   -0.90814582482870
C           4.71609439164784  -25.61947801296287   -0.48059437535579
S           6.22808497437685  -27.95582281686256   -0.56393958270284
C           7.71285185773534  -27.81155941682904   -1.46631814152100
C           7.92056039371954  -26.58429618687923   -1.99814245157975
Br          8.85103620898833  -29.29560748640007   -1.62051022203478
H          15.24106746050608   -5.13470386915921   -2.20205207953037
H          13.54128263587041   -4.43502532601809   -2.24408002604338
H          15.48394043935948   -7.78305275103848   -2.21698756397694
H          14.01009262574821   -9.89299726358464   -2.26526163050360
H          12.24077739361614  -11.45790853257060   -2.25114368565290
H           9.96077803256392  -12.64154455310595   -2.27579229501897
H           7.48867260504859  -12.16649193072786   -2.54090286746367
H           5.73467278028513  -10.73246707819151   -2.88702891147067
H           4.58968532192588   -6.30520584267475   -1.38639826908582
H           4.49597557270027   -9.44099743342254   -3.76117094796265
H           3.33856970815192   -6.67060275142512   -3.22578846235505
H           1.90349781386458   -7.05065047990654   -5.04572823333335
H           0.72462043606923   -8.34183335039897   -6.79107768258212
H           0.39693780985584  -10.73077861617742   -7.67174635072734
H           0.52481328854888  -13.04168848477998   -8.12129003507730
H           0.93176607398199  -15.57775307644682   -8.03777096302876
H           2.03511406218056  -17.33367435404366   -6.60112949282640
H           3.08203658894725  -17.94371648337045   -4.51714776375948
H           5.09509558902587  -15.49700018311374   -6.46415830817453
H           6.53179648024483  -15.95223155371247   -5.53650645265729
H           5.47222179525200  -14.66804538383521   -4.95508632276984
H           6.09157814652123  -16.50950428862051   -3.09712429016173
H           6.07475166727089  -18.09437347119894   -3.88720202059982
H           3.91051532688333  -17.11783720877199   -2.12339761827860
H           5.12244484270651  -19.75230934962180   -2.67875206336900
H           2.82898827782813  -18.80741157136678   -0.87134186098547
H           2.47112040142313  -20.95958076066737   -0.21741902754248
H           7.47024562399222  -23.84201558501312   -2.65131419856098
H           3.97954505907019  -26.12966967836340    0.11663029546124
H           8.78352134387154  -26.32142767287714   -2.58226849361417
