84
 SCF done       -158.610444551184          0.000244146544
C           9.53480586977189  -20.94899148534601   -7.29626894257456
C           8.28529935738578  -20.93808545491035   -6.81584862245409
C           7.46812893355960  -22.06743029629896   -6.46737479725823
C           6.24475538041283  -21.74791753664661   -5.99710228673232
C           5.99033588329896  -20.34574040898571   -5.93004565714865
S           7.37920777288198  -19.44804862851756   -6.50726702588141
C           4.85361447854169  -19.72596052835406   -5.48077010222515
C           3.67192406365990  -20.31513742762215   -4.95796615339352
C           2.73270963934611  -19.42113536081641   -4.56940530153062
C           3.10750943398407  -18.05334418722237   -4.74630186190950
S           4.71005952583924  -17.97523359126315   -5.46627430055141
C           2.30162614847611  -16.99440497298459   -4.46377009841972
N           2.60011086651727  -15.65608937218990   -4.55093195302582
C           3.79695034307670  -15.04451517944493   -4.38295705098756
S           5.09139925510764  -15.79418671828083   -3.51046913281365
C           6.05269390562208  -14.36273254638402   -3.72690153248021
N           7.34052630064910  -14.37464319301813   -3.19834661716780
O           8.02955453815054  -13.37882498872195   -3.34374397917950
O           7.68483700031106  -15.39287682831338   -2.61555577479531
C           5.40706234060406  -13.37155863754914   -4.41684205306102
C           4.10093717030957  -13.72997899767550   -4.79229870921914
C           3.18196317506854  -12.87355972637566   -5.48312151634906
C           3.51249612366196  -11.70580658052935   -6.07011450032768
C           2.57949909593429  -10.82752430945151   -6.68339544391618
S           0.82404390833684  -11.02683136202541   -6.61227535924587
C           0.75239980610786   -9.52536996728156   -7.52474547465566
N           1.93213586343644   -9.03861137664314   -7.77888996150444
N           2.92513189922977   -9.74978299497732   -7.32268612279188
C          -0.45134617037268   -8.86832216138753   -7.88411909477481
S          -1.88336581981919   -9.04732857331144   -6.94492500073071
C          -2.70672974010823   -7.79099850904281   -7.80105999094495
C          -1.88209269180985   -7.23409834954661   -8.78425787302974
C          -0.61508704103358   -7.88950128598834   -8.87014616903403
C           0.29852903313293   -7.51777509205720   -9.88658477818141
C           1.49210349352452   -8.36091475952421  -10.19393352937712
O           1.43010106318127   -9.54427978248451  -10.42006450018208
O           2.59818902334155   -7.62826937379135  -10.29408682560602
C           3.80095062350620   -8.34574320842395  -10.53823038300473
C          -0.00277284468133   -6.44032798060713  -10.67847916283372
C          -1.19408683226093   -5.71149029087561  -10.49885655589685
C          -2.13211994899165   -6.10190369958002   -9.58739285162559
C          -4.03082700478286   -7.42513511585513   -7.42623309959601
S          -4.47725082648962   -7.43333378324048   -5.73457975685603
C          -6.04026257633081   -6.84555877139313   -6.09336942262423
C          -6.23251173237919   -6.65229411934994   -7.43193212912633
C          -5.09067902406531   -7.00326382356012   -8.21164199969179
C          -5.16142053193520   -7.06647211451253   -9.67382297640109
O          -4.31975747818459   -7.60959207009843  -10.36807041112011
C          -6.36737991498744   -6.43455569324698  -10.25659816208448
C          -6.41788071056701   -6.27289906823765  -11.63920802855641
C          -7.50537719485138   -5.67446471993653  -12.24396902213598
C          -8.58300615697351   -5.22474601254867  -11.48558119711560
C          -9.78549326661775   -4.61528076992686  -12.14191229956403
C         -10.81113392638411   -5.70101399270158  -12.47707258383394
C          -8.54216508993295   -5.39908624756832  -10.10972178925755
C          -7.44980347345686   -5.99024095798507   -9.48393838907501
C          -7.47876367369849   -6.13799580061949   -8.01245162899260
O          -8.44737587584378   -5.84379195802610   -7.33792120916729
H          10.04998250902478  -21.87781321885937   -7.46727135094334
H          10.06192307869548  -20.04008762717489   -7.52157766709947
H           7.84187332956863  -23.06930497871895   -6.58381884942123
H           5.50548324662508  -22.46510744506437   -5.68735964612730
H           3.56057301066743  -21.38146993202306   -4.87989029027673
H           1.77946826868759  -19.68201444095254   -4.14523302643311
H           1.28053390356802  -17.20048485296169   -4.17206229189885
H           1.81614753372987  -15.04089048374004   -4.72983501060630
H           5.86997344412689  -12.42452337700397   -4.62210998042458
H           2.14502136339933  -13.18567532014269   -5.52635620875594
H           4.53523357135499  -11.36393356006247   -6.11015442245191
H           4.07132823371981   -8.91452720768159   -9.64624614923055
H           4.56127506954388   -7.60180209052228  -10.76146172859343
H           3.67017643325056   -9.03310175433261  -11.37678357258210
H           0.68391087623137   -6.14803036308139  -11.45791507631922
H          -1.37037043851055   -4.84268884670398  -11.11468653777806
H          -3.04702034223940   -5.54610562204707   -9.46112633478047
H          -6.75102620913376   -6.66607520516451   -5.31066305356238
H          -5.57942618325371   -6.62498465192372  -12.22213377463616
H          -7.52111859087764   -5.55096598129308  -13.31729422666349
H          -9.48851792103294   -4.10372812079810  -13.05948074769026
H         -10.24195559678797   -3.88502269012387  -11.47145386589387
H         -10.37943610024689   -6.43513354949633  -13.15374526101515
H         -11.68474168582759   -5.26160673159538  -12.95199629783350
H         -11.12804489125349   -6.21366170572275  -11.57189405197851
H          -9.36359768240989   -5.07121949976158   -9.48856942458397
