91
 SCF done       -154.574211810394          0.000383913438
C           5.81111778609779  -18.26605031626922    4.43604675737153
C           6.59601618067645  -17.23659724416109    4.78414930170639
C           7.81846000534156  -17.27515919168543    5.53336764373091
C           8.39157813081155  -16.06599860110441    5.73005329139200
C           7.67772804645597  -14.97900853417010    5.15664774623489
S           6.23361626310658  -15.55811510012266    4.35127843823549
C           8.01214157312797  -13.64389238990438    5.18601718693850
C           9.13230098869125  -13.02943560108153    5.79149369243066
C           9.17093997213139  -11.67792230026625    5.63115810464545
C           8.08899032401266  -11.14320965131949    4.89094348472683
S           7.00825468177160  -12.43341733388383    4.40657716579609
C           7.90052153464703   -9.81387880076518    4.58309905743476
C           6.85321214192706   -9.25971667474421    3.84969681838239
S           5.56116085250629  -10.21518564143742    3.18917486616045
C           4.76565536910709   -8.84358697609565    2.47813611190927
C           5.48625093759846   -7.66737246993433    2.74821859828829
C           6.66308660765379   -7.89641853637683    3.52255264415409
C           7.48781147115877   -6.81825575873104    3.87598585426772
C           7.14566911707061   -5.55811476153237    3.46892943802020
F           7.92687950805859   -4.51361301684000    3.80120547520503
C           5.98384725601614   -5.33013955631085    2.70402754275806
F           5.68669668536183   -4.07325285055693    2.32610035427179
C           5.16122443373138   -6.35942210734331    2.34418802881767
C           3.56672938554103   -8.99281160565442    1.74801811146727
C           2.94942265447205  -10.18754126839727    1.57515672083615
C           1.74287682197445  -10.42912094747350    0.84969775067601
C           1.02650319215340   -9.50887542267412    0.13647233747318
S          -0.38362686207181  -10.13668178989615   -0.62438175037530
C          -0.04880795168715  -11.73237980919380    0.00292770870104
C           1.12499479904716  -11.73549416946545    0.78477012815769
C           1.53421376654718  -12.92114042566313    1.38264961649696
C           0.77077686864094  -14.04980196598264    1.16309121148707
C          -0.40954823026847  -14.05001760377098    0.38109218165982
C          -0.95693299649557  -15.36382742968882    0.27056497773262
C          -0.24985081876634  -16.28809249244596    0.95169305229956
S           1.12990252125385  -15.64240426932682    1.77388841790926
C          -0.85221238483678  -12.85065406763729   -0.20063295821031
C          -2.07087035445518  -12.71780057765345   -0.98287108554969
C          -3.23696514105532  -13.29734362974923   -0.67007883266348
C          -4.49064439404388  -13.19475895868111   -1.38136157310622
C          -4.93355288393330  -12.22426835232243   -2.19109104624389
C          -4.21459190285810  -10.95148940501009   -2.50743644310221
C          -6.28772803109967  -12.35615745339460   -2.84230455245104
N          -7.14635955944852  -11.25850747258065   -2.46461980038185
C          -8.14919039626139  -10.79871708426986   -3.24421317369536
C          -9.07005937188460   -9.88613730287548   -2.83926041260149
C         -10.13266338779240   -9.36507996587337   -3.61153368732333
C         -10.55907011428605   -9.70119743023892   -4.86735381702882
C         -11.67351714669696   -9.11786535684075   -5.52890109933424
C         -11.95152353619227   -9.63342996510788   -6.75343989060747
C         -11.07055066840725  -10.66756390467311   -7.15904959816018
S          -9.86635348922606  -10.94280437054377   -5.91387724098346
C         -11.09050974440429  -11.39321685730767   -8.32313595651778
C         -12.00763243137711  -11.28024950887095   -9.40238204875449
C         -11.78508173059821  -12.14075896014767  -10.42106882891665
C         -10.66131331780273  -13.01141250269325  -10.23064486314857
S          -9.91399475286195  -12.65634420110591   -8.66526217099046
C         -10.20408989561567  -13.95760188613807  -11.06239342173598
H           6.06772924095601  -19.27175458411683    4.71859572523686
H           4.90965531024988  -18.12233711107346    3.86923303000557
H           8.21341906028979  -18.20941051983285    5.89116514673486
H           9.30943535698163  -15.90989903124300    6.26883196165336
H           9.87407396511774  -13.59630357846156    6.32479007905599
H           9.94693128992240  -11.04266956275321    6.02124919469219
H           8.65273189188246   -9.12832937559508    4.94917519293734
H           8.38222644082718   -6.96035727373053    4.46003078572134
H           4.27922025721253   -6.15625636974190    1.75971018788965
H           3.14467945656310   -8.09383702682584    1.32310545165458
H           3.40569360422590  -11.05607567489972    2.03032224229236
H           1.24726564182931   -8.46835210937232    0.00213304558632
H           2.42162550514390  -12.97262552213037    1.99233927568712
H          -1.82285752544159  -15.59973782122401   -0.32001146056503
H          -0.44495464350465  -17.34008057878270    1.02840652775227
H          -1.98669572194238  -12.06728968371181   -1.84039084955630
H          -3.27436921653453  -13.93143378259885    0.20740459711604
H          -5.16018391830960  -14.02776255624370   -1.19604342027304
H          -3.62503070577310  -10.60994500227744   -1.65960330158790
H          -4.93193403043146  -10.17872714674927   -2.77757307015343
H          -3.54437915454437  -11.09215074129511   -3.35568274392479
H          -6.74330577609804  -13.32012900466900   -2.57379993368250
H          -6.17426798824467  -12.32897604526860   -3.93117774114350
H          -7.17111427942323  -11.02837299416847   -1.48158995081602
H          -8.14636677644017  -11.18068874758164   -4.25302954369869
H          -8.99699263613743   -9.51200705547144   -1.82538270880259
H         -10.72172221404231   -8.59497352311764   -3.12761670773274
H         -12.24043372772844   -8.33026518970058   -5.06247121438682
H         -12.76468053126967   -9.30804063696407   -7.37740675256396
H         -12.80699039650473  -10.56019492650749   -9.38177568825650
H         -12.37782005081841  -12.20050473086014  -11.31689440748545
H         -10.69003313274313  -14.14072029067039  -12.00438301123271
H          -9.34658297753977  -14.55788997429373  -10.82016550410090
