76
 SCF done       -139.979045564584          0.000712758595
C          13.31147342132609   -6.58157153966152    0.65214906000299
C          12.18592081997583   -5.88949177960500    0.43701538853228
C          12.06263752058283   -4.52918878931455   -0.00773067640378
C          10.79247184101282   -4.08673042544218   -0.10639362828492
C           9.80414744623977   -5.04604823897587    0.26444947502854
S          10.56918172225521   -6.56847943057527    0.68828925894544
C           8.45862327577400   -4.83612055948183    0.39315914709967
C           7.77454049876617   -3.59174125431356    0.29692792601713
C           6.49670145058560   -3.63835485130698    0.72919421023781
C           6.05669339543098   -4.92968842532560    1.17035137537648
S           7.34938061757936   -6.09416022098662    0.91883461553700
C           4.81272680956041   -5.15794889304148    1.65835577617710
C           4.14167228053510   -6.36005239228134    2.07805371222296
C           2.78802204120346   -6.45371616451417    1.85291639357971
S           2.11024263451960   -7.95644772193061    2.31266100079363
C           3.62969573580793   -8.49649232404417    2.85475245071262
C           4.62390414606493   -7.56505475834271    2.69742550468952
C           5.93417936712163   -7.90680407810655    3.25955503636813
O           6.27996688078266   -9.03997083610727    3.49713808960409
O           6.70271826075928   -6.82953081131555    3.55568139368950
C           7.94570976618562   -7.08786138530505    4.04484693280841
C           8.91729904218108   -6.15753757076909    4.08620249378416
C          10.28653393970383   -6.39600122209677    4.42858950098067
C          11.10511675203263   -5.35448475320238    4.16359420120545
C          10.44254270007229   -4.21763891052831    3.61992259048886
S           8.70915814157492   -4.48566426360061    3.57222709216914
C          11.01554143393153   -3.09082248084884    3.09361800651749
C          12.39482575629082   -2.77082234192703    2.99242371492353
C          12.64782236515726   -1.62961926419552    2.30964529473402
C          11.48962376156227   -0.95767772272053    1.81243304619910
S          10.05280100573917   -1.84497454579141    2.31899445021098
C          11.52220335562765    0.16355387346252    1.04489001926001
C          10.43400176161005    0.87270772697212    0.45132330220092
C           9.09667434949254    0.58444078501385    0.58060830605873
S           8.08836572396696    1.65047428052910   -0.30734206905954
C           9.44041735215034    2.51631654585666   -0.88319143180986
C          10.62399128384430    2.01528366049058   -0.41294434609227
C          11.91540987230660    2.60391048803436   -0.76774415214687
O          13.00586192231683    2.27260718682905   -0.36238922669316
O          11.74808152743810    3.62172137378909   -1.65212077282623
C          12.84736537911842    4.30194184827260   -2.07498012523061
C          12.73735937107075    5.28497838669286   -2.99002832692149
C          13.79641292810353    6.08430187477826   -3.52239462804539
C          13.39142173453885    6.99120304365486   -4.43884843475772
C          11.99130269157037    6.97893788926370   -4.70107901399026
S          11.20058883297405    5.75665141988104   -3.71449202395002
C          11.30148987899416    7.76872056743915   -5.58086267316282
C          11.83007685450512    8.78427403837852   -6.43194246703440
C          10.91055012934469    9.40043318100126   -7.20280590488233
C           9.56728159836982    8.92221411021379   -7.02544914407156
S           9.56588592461851    7.63617704997100   -5.80726081358652
C           8.46144657117467    9.34289281048095   -7.65183433686814
H          14.27369646400891   -6.12895577356642    0.48925891914685
H          13.29181208472061   -7.60176568051750    0.98870232484786
H          12.93694044350108   -3.94195604400138   -0.22659586468337
H          10.51835317157807   -3.09649538609542   -0.42448154737204
H           8.26885514056783   -2.70200284442824   -0.04860114259921
H           5.83579652083123   -2.79053771546625    0.77108273583700
H           4.15607663716551   -4.29494538876264    1.63601941185808
H           2.16116623519787   -5.71072314901782    1.40036381892451
H           3.74231845775766   -9.46571442530913    3.29899010115482
H           8.13409320372740   -8.11572095591920    4.33078348260281
H          10.60233116479475   -7.35128580151585    4.80638198608217
H          12.17058839276655   -5.36677216097240    4.30715564276940
H          13.15119237336677   -3.40586866233310    3.41754577524529
H          13.63041486852862   -1.23520610529245    2.11964635793265
H          12.50088578511860    0.56985510146249    0.83293713238875
H           8.63883265386383   -0.18856391457141    1.16250549034124
H           9.30361250690733    3.35340446874714   -1.53857792433658
H          13.79433041436195    4.00799228486726   -1.64071848925041
H          14.81143660637702    5.94442106708393   -3.19686335673746
H          14.05014290548356    7.67477892444704   -4.94385569105586
H          12.88017924487336    9.01730080988110   -6.43805726282592
H          11.12214527782263   10.18755401325529   -7.90480368184205
H           8.51154898079936   10.12800592987694   -8.38554314269114
H           7.49705659229463    8.91636722220625   -7.44577964599065
