85
 SCF done       -162.736838214630          0.000373744220
C          -4.18289298875820   -4.33769655233638    4.99683809342044
C          -3.52071778553198   -5.42550570625128    5.41076824218559
C          -3.46618072167851   -5.96980927248993    6.73846674372217
C          -2.70894765319745   -7.08105420767635    6.85704832399623
C          -2.10087173534671   -7.50902136915117    5.64153505357191
S          -2.54285238868155   -6.43205085388591    4.33067852596932
C          -1.27204397268756   -8.58730810133859    5.46110541957650
C          -0.82752257932142   -9.52356838027740    6.43035047087752
C           0.01527806871420  -10.47135600288671    5.94938288013847
C           0.29447574344846  -10.35123752110769    4.56054926697753
S          -0.58230101928261   -8.97166882139610    3.89300882723206
C           1.11873615589907  -11.14129040427516    3.81986514286390
N           1.32538431407698  -10.95520227038563    2.48926641438227
C           2.16938638706134  -11.64536096233105    1.70155157173463
S           3.17462557922654  -12.90558310259776    2.34757220314237
C           3.87908112944991  -13.13096799011313    0.76969958988984
N           5.03438349679081  -13.84789661323701    0.64470587014939
O           5.68058110195752  -13.67323272309313   -0.41247324194183
O           5.43094827290278  -14.54110023543648    1.57295313287514
C           3.31147719066326  -12.31742934674886   -0.19262013421684
C           2.37231715368704  -11.42306469021218    0.32697478840885
C           1.75443115753471  -10.35536457340584   -0.40482299541581
C           2.18734062240307   -9.75584673195998   -1.53452288597357
C           3.38692888413685   -9.90740988813717   -2.31607868981483
C           3.30100748554429   -9.55302623344450   -3.68799723872544
C           4.39710616683443   -9.74608207964244   -4.60533304233100
N           4.27673438395110   -9.35713422940962   -5.88372090873207
C           3.12758830132785   -8.89363454477892   -6.30740290293337
C           1.99870957308024   -8.81720364743731   -5.42700082624039
N           2.12106276797062   -9.11665019833271   -4.15778912664421
C           0.73340217693665   -8.42884584640876   -5.92852817783621
N          -0.27623599197039   -8.12422308628705   -6.37756378802212
C           2.99693891816265   -8.51791270232513   -7.66523565383068
N           2.84537268571812   -8.25465582849423   -8.77080300742585
C           5.58953769681348  -10.39098456852032   -4.21086481897325
C           5.70496076831139  -10.65946841930767   -2.84683211424323
C           4.64547964687995  -10.37743706278675   -1.90283248993710
N           5.00576698050088  -10.73259679261658   -0.65459615331963
S           6.45080048743199  -11.43008252048417   -0.70636587280356
N           6.75846974416534  -11.24932722087140   -2.24569829835818
C           6.57030437140245  -10.81964029882625   -5.18718182605967
C           7.93873017984675  -10.65132944442014   -5.12049157714865
C           8.78833879736606  -10.00952635810009   -4.08629269101498
N           8.46914662191500  -11.14773333553731   -6.27035771345420
C           7.49036599047331  -11.63884318174287   -7.08459760430373
C           7.80978068285072  -12.28141266714376   -8.38542413274850
C           6.28453888863526  -11.45984378351539   -6.44363826425961
C           4.97197899105305  -11.82716026260300   -6.92108708925711
C           3.99604782788039  -12.20630563938461   -6.08785738344020
N           2.66514321503305  -12.31888534070293   -6.43586765455804
C           1.65469067361949  -12.33387275586578   -5.54281147077133
S           1.96418173590516  -12.68024861233276   -3.86723658842258
C           0.26342142152908  -12.52998674235175   -3.52750971913010
N          -0.14207600383753  -12.69595213035410   -2.21824978282796
O          -1.32243606478987  -12.53316331803237   -1.94476852370142
O           0.72530486107485  -12.99739780470374   -1.39946660097870
C          -0.47795576544500  -12.24975006193246   -4.65017720648241
C           0.29521376874712  -12.12282885413578   -5.81039158621434
C          -0.29684928636771  -11.78494829422793   -7.09503740120262
C           0.26685427079083  -11.14239306619097   -8.11156066065430
H          -4.76485857004068   -3.75367711421880    5.68773446085430
H          -4.15655195094842   -4.01453867843936    3.97239875427876
H          -3.99951396973446   -5.49866746604341    7.54490494619291
H          -2.55768373422566   -7.61732821298506    7.77700832239507
H          -1.14529015332968   -9.46270847700715    7.45542190886051
H           0.45314208565127  -11.25757575108860    6.53764065982354
H           1.65370080457495  -11.95846833263741    4.28040098874521
H           0.77634399652366  -10.22656706391571    2.04312540756700
H           3.48147318818777  -12.47046657373927   -1.24021626067540
H           0.80995604152094   -9.99889865916363   -0.01001411322713
H           1.50144329533660   -9.04973210605580   -1.98715830208671
H           9.71341375569796   -9.64123728297678   -4.52597390478055
H           9.02854311069443  -10.72358777497033   -3.29906724347632
H           8.25891492485723   -9.17913113263332   -3.62648507080668
H           9.45216866348424  -11.15275752186561   -6.49034450758924
H           8.60456708196651  -11.73882550501325   -8.89550083751236
H           6.93007424934024  -12.29474464750706   -9.02220420354094
H           8.13964161986341  -13.31135790565874   -8.24050151340813
H           4.77651228795562  -11.72154038220516   -7.98049574257436
H           4.19257349334257  -12.37030160712633   -5.03840761894215
H           2.41640250712679  -12.20648811378808   -7.41129978323571
H          -1.54425574024119  -12.11707833828649   -4.61559115348291
H          -1.33703357632236  -12.07212895859768   -7.17653425634789
H           1.26812930436659  -10.74407320747855   -8.09786956078987
H          -0.29419409894209  -10.93064593235573   -9.00418409365139
