113
 SCF done       -198.013920890089          0.000685467227
C           2.27829401122134  -14.55347099700956   -6.77156120367483
C           3.12014878290106  -14.58120575078595   -5.73051356815782
C           3.96722614567479  -15.66201704145591   -5.31032028686390
C           4.70669312677971  -15.40118896696651   -4.21099728811215
C           4.51311195778170  -14.09860211367359   -3.66935705577492
S           3.34056969018721  -13.21332400988978   -4.62902676105697
C           5.10992861856700  -13.55045251506296   -2.56409629627753
C           6.04628312485988  -14.14284327698105   -1.67712052602029
C           6.43603339631163  -13.34208049205635   -0.65381798992231
C           5.84006482761952  -12.05203641649779   -0.66324893410162
S           4.74828966741531  -11.91130038745161   -2.04881268835634
C           6.02333813720263  -11.03846212994961    0.22515160443136
N           5.40396890423257   -9.83699338289850    0.07857122785670
C           5.45332725201535   -8.77541944957234    0.91039148862991
S           6.44752835285498   -8.78359073516676    2.33381430767670
C           5.99505661675205   -7.13245651153539    2.63932686089484
N           6.52411276981246   -6.52598971394808    3.77167990711528
O           6.21873009954050   -5.36564047787322    3.99729443959684
O           7.26633546239983   -7.20930134658349    4.46534373289191
C           5.14075346482559   -6.62229351325593    1.69434942391552
C           4.79658940656505   -7.55228825481946    0.70180623868690
C           3.90798515710078   -7.23928613524981   -0.39499137530640
C           3.12251344297665   -8.10605673466212   -1.05699677723279
C           2.27331990036119   -7.81408297007022   -2.19287226761519
C           1.53110284489209   -8.86928068066273   -2.74662540840753
C           0.72152418753981   -8.63986351693353   -3.83138227909453
C           0.63371127029733   -7.35648977609550   -4.39636183192979
C           1.36584495838061   -6.30600393637734   -3.86222131550941
C           2.17604932183137   -6.54212590687064   -2.77020501245935
C          -0.28669931324693   -7.40637320291328   -5.51154928677262
C          -0.77499347439060   -8.71901016819200   -5.63036114772105
C          -0.16170637487753   -9.61239049866946   -4.57717779382530
C          -1.23473454793937  -10.21852392644055   -3.65445148866764
C          -2.09697357175383   -9.16090395248496   -2.97589834335606
C           0.66670885667042  -10.74283963074937   -5.21564264803587
C           1.75546509457810  -10.22604464113137   -6.14750391799254
C          -1.68865801792522   -9.03577108461687   -6.60452263116773
C          -2.12826643936539   -8.04779938082563   -7.50138512534099
C          -1.62511950852628   -6.74591138756033   -7.37110815696559
C          -0.71550800025939   -6.41886078349452   -6.38681120642330
C          -3.09565857958577   -8.41158841790602   -8.50904086022442
C          -3.45660464075330   -7.66263197137392   -9.57102693329341
C          -4.43538567739671   -8.02549411796399  -10.54082067450453
C          -5.28319333069398   -9.11552744621573  -10.57805844245822
C          -6.11508287711625   -9.08417220323534  -11.69782620651030
C          -5.90260006247388   -7.96459271754117  -12.53399686781865
S          -4.66154769314826   -6.94596589951726  -11.91188997135894
C          -6.80337328566542   -8.06939177555824  -13.59126298858705
C          -7.55429984114101   -9.25388724088003  -13.37350489839399
N          -7.11723393161231   -9.85637104461049  -12.22169996571231
C          -8.51716707614971   -9.49339179439975  -14.34301291480788
C          -8.51873870156811   -8.50563581136901  -15.32131349630657
S          -7.29836768381091   -7.26348405174162  -15.02388301758513
C          -9.34307154454369   -8.38309535180124  -16.45518705709091
C         -10.36422490788055   -9.23201287969196  -16.77828484727024
C         -11.15202236652724   -9.03758673070562  -17.92383506022296
C         -12.21930801341840   -9.82432675851825  -18.28349032913138
C         -13.05924389580687   -9.66147824974949  -19.44966811761220
C         -12.89831378710953   -8.75624831784234  -20.47003652317496
C         -13.75375155096155   -8.66171980895027  -21.58640049736853
N         -14.41203833728811   -8.53524231683939  -22.51914893652169
C         -11.86292422043542   -7.80503615669410  -20.57096732631735
N         -11.05615402788924   -7.00434415342354  -20.73935004827952
C         -14.12243815473511  -10.66047202574749  -19.37494519884027
C         -13.92531351359583  -11.44757727219713  -18.21489618461603
C         -12.72415446082931  -10.97036578681635  -17.49849183802113
O         -12.27287584533446  -11.43986725358284  -16.47162997007979
C         -14.76547564825329  -12.47538190974811  -17.86397561533943
C         -15.85790699514046  -12.73925265765813  -18.69704927432716
C         -16.04867318657924  -11.94666343918845  -19.85274888051998
C         -15.19669598330777  -10.90809555123073  -20.20875868829113
S         -17.46117100074908  -12.43824456109129  -20.73885424989220
C         -17.77074799020852  -13.68456105071670  -19.55949383485137
C         -16.86515494794557  -13.73294207067724  -18.55429982535809
Br        -19.26072790527734  -14.80569933553162  -19.76675076259995
H           2.17435514867961  -15.40872784314650   -7.41546515864116
H           1.68393866009292  -13.68680246544448   -6.99623251670627
H           3.98117074665772  -16.58903671903269   -5.85555390218325
H           5.39331796849824  -16.09651725765337   -3.76138609932037
H           6.39782566551666  -15.14791493619226   -1.82526658512346
H           7.13468662920958  -13.62463053965821    0.11308447782939
H           6.66066783361338  -11.16026664424199    1.08777410949408
H           4.88065298070722   -9.70244414546139   -0.78201610348683
H           4.76767012992253   -5.61515708615536    1.74201688599475
H           3.88667185082228   -6.18996796906109   -0.65335572143472
H           3.05523901592636   -9.13368534809064   -0.71966878441625
H           1.60785904750036   -9.85772470064285   -2.31542155833404
H           1.30419212808459   -5.31731766139965   -4.29186248190275
H           2.74392747409310   -5.72368601804605   -2.35596151484748
H          -0.73832122970188  -10.82535801967474   -2.89441182037534
H          -1.87118262788708  -10.88050706930585   -4.24559356188295
H          -1.48488534452624   -8.49942616933157   -2.36685762384353
H          -2.83536130701465   -9.63513375236738   -2.33342490557658
H          -2.61981695940422   -8.55853815681604   -3.71563922421978
H          -0.00762749759838  -11.39826309456105   -5.77137061153295
H           1.12691923775045  -11.33270804764947   -4.42078633376092
H           1.32388915254860   -9.67048750417434   -6.97739916998455
H           2.33026794460839  -11.05828910307879   -6.54684157721572
H           2.43714148024113   -9.57040672798992   -5.61098710232459
H          -2.07189987939258  -10.04252944773105   -6.69676612634425
H          -1.96938509736832   -5.97441155896129   -8.04196224916471
H          -0.34787924769534   -5.40745095390733   -6.29819312804281
H          -3.54603877201546   -9.38770619832760   -8.38342581516390
H          -2.98344783897529   -6.70641960360351   -9.74458822973446
H          -5.30029223100024   -9.88081132279501   -9.82474416200248
H          -7.47841219802769  -10.70773526347911  -11.82811137997619
H          -9.18693215981311  -10.33287762138790  -14.35642206063275
H          -9.14373618523316   -7.53857955902901  -17.10385184281149
H         -10.59391627742455  -10.07366415267757  -16.14457433325985
H         -10.89343485744763   -8.19619088427932  -18.55353893697450
H         -14.58697463169369  -13.05734171877586  -16.97328810123255
H         -15.38845142205910  -10.33278338401354  -21.09876621027738
H         -16.90424526677719  -14.43850742392262  -17.74450885653393
