89
 SCF done       -171.324194721685          0.000397636926
C           3.08720699904180   -0.03841069016011   -8.35546165727561
C           3.42624150423249   -0.23350634962848   -7.07248999453544
C           3.90869453837238    0.73441320493849   -6.13201381075569
C           4.17434623602556    0.23351971270313   -4.90283179144798
C           3.92665711246594   -1.15858018518027   -4.77353860024062
S           3.33114173898269   -1.81502681250294   -6.28173504814568
C           4.11117443784214   -1.94072640589802   -3.65107741125950
C           4.59599488447779   -1.55537823822506   -2.38453490173886
C           4.66415204904778   -2.58155168431125   -1.48846681212533
C           4.24719886721693   -3.83721591917838   -1.98827101506280
S           3.74923378078312   -3.65470085224673   -3.65752009098305
C           4.16599055850353   -4.96911138289620   -1.19523407882476
C           3.78577499116159   -6.28561545966642   -1.43248391055006
S           3.39230365289705   -7.21667240040974    0.00149854066841
C           2.90114656220900   -8.62142163547560   -0.89998233463596
C           3.09878753570690   -8.39027928381494   -2.28530372977292
C           3.61945611984805   -7.09849013097111   -2.58524706419898
C           3.98637627554037   -6.80382241506554   -3.90535253383786
C           3.76997772954881   -7.73227245942549   -4.88940300272371
F           4.12782731217993   -7.45230434132110   -6.15367281995721
C           3.19617208233505   -8.98134897706997   -4.59821830973200
F           2.98918103077261   -9.86294352093911   -5.59084883743169
C           2.87270195725863   -9.31806047549930   -3.31080429630231
C           2.41517397300439   -9.77033278479438   -0.29147008639502
C           2.31145769259639   -9.95298536099136    1.07199207215647
C           1.83434834748812  -11.10723738047924    1.67670783916599
S           1.24696694300880  -12.46797182627722    0.75403046281558
C           0.90843164376074  -13.42172982873437    2.17638084764503
C           1.24143883695654  -12.68713736073141    3.34338255008536
C           1.75236663355031  -11.39065974354792    3.06390176431512
C           2.12160851841783  -10.54211415424709    4.11628976643686
C           1.98035196174493  -10.98442845475464    5.40524005873700
F           2.32930980159871  -10.18202570041798    6.42608299482839
C           1.47503107001400  -12.26736197355348    5.68174828847957
F           1.35226173788277  -12.66255679323188    6.96073891323368
C           1.10685983769048  -13.11571395761152    4.67077151679079
C           0.39841656492877  -14.70970944365298    2.10012749831569
C           0.04911803732280  -15.34358809472787    0.92503810922431
C          -0.42590198878422  -16.64411810053325    0.83864124680877
S          -0.56721001497143  -17.68388404385253    2.23390975678541
C          -1.16024362903914  -19.03284884359917    1.29878079194046
C          -1.25811869904688  -18.66974889801521   -0.07001445336897
C          -0.84439309725948  -17.33509234703436   -0.32779919935315
C          -0.88610760901450  -16.82896251736253   -1.63378764076847
C          -1.32853597405396  -17.63957493675827   -2.64608059435325
F          -1.37727710495460  -17.16815049896678   -3.90357494033540
C          -1.73556519657509  -18.96113783700038   -2.39157219043997
F          -2.16336280688522  -19.72588207327636   -3.41114519848642
C          -1.70383971663411  -19.47890409247089   -1.12332527340805
C          -1.46137470786051  -20.25861582006402    1.87398422705624
C          -1.32004180164890  -20.55552704861784    3.21624209444402
C          -1.61434989846035  -21.79357067873960    3.76385549601636
C          -1.46579085050184  -22.11924999448448    5.10162017842356
C          -1.74440996736719  -23.36195641425412    5.70399302890658
C          -1.49864263203654  -23.40396806967380    7.04696571203075
C          -1.01092708752304  -22.19000432403184    7.57391224669932
S          -0.87630576678744  -20.99060045529887    6.30461791940482
C          -0.66697492152082  -21.91026005837023    8.88235447412595
C          -0.72711149807546  -22.79085181051882    9.99410216485754
C          -0.32338130676949  -22.24104070679420   11.16361265513615
C           0.08884877859440  -20.87260438238349   11.06103566411473
S          -0.07398326561044  -20.34181151330912    9.37934511093809
C           0.53420977565555  -20.07025308700221   12.03954616885422
H           3.15943871704038    0.93856763902917   -8.79968064964312
H           2.73697511651326   -0.84265717514930   -8.97598825375985
H           4.03688366289841    1.76296748796900   -6.41877098086086
H           4.54315621225096    0.81629420824202   -4.07743633648109
H           4.87932158037118   -0.54208830324829   -2.16461641837912
H           5.00784058844792   -2.47285540665635   -0.47465309475761
H           4.37085851594572   -4.76409934933964   -0.14881447565728
H           4.45952736350505   -5.87463188602860   -4.16630452317288
H           2.46410165708912  -10.29346618549918   -3.10501033318290
H           2.10457030300906  -10.58012467707269   -0.93734228438061
H           2.63597435012465   -9.15007288242654    1.72000530940288
H           2.51137777820548   -9.55436157801974    3.93381012883394
H           0.72148250722270  -14.09254593781050    4.91198332816157
H           0.26526647196321  -15.24724758595805    3.02907211905443
H           0.14955493573323  -14.79106844426068    0.00057256773091
H          -0.58176902885216  -15.81999413272387   -1.85792883596225
H          -2.02319062501829  -20.49470597134952   -0.95891589123227
H          -1.82417388643154  -21.03557028557145    1.21474469262406
H          -0.95292666153850  -19.78100287862517    3.87862077466482
H          -1.98370890415340  -22.57493997141403    3.11160964361761
H          -2.11823642610685  -24.19221244685961    5.13071341395762
H          -1.65552324708361  -24.27161147873420    7.66202460835719
H          -1.06856043428974  -23.80524761022548    9.88844009636320
H          -0.29950013733297  -22.75320490077118   12.10892552403102
H           0.61821029896358  -20.43132634790260   13.04930288338090
H           0.81868072255823  -19.05168578622945   11.84991845624230
