78
 SCF done       -148.167221706262          0.000551421133
C          -3.06449908361456   -4.32091891749968    1.55705896030145
C          -2.01401326055522   -4.78658403475206    2.24457150873052
C          -1.77522105730232   -4.69090831044280    3.65733772651588
C          -0.62184335695434   -5.25829207075242    4.06947036037904
C           0.14719696461821   -5.84896217686617    3.02532134944591
S          -0.66723984423852   -5.64980103494618    1.48502799558605
C           1.35152584557824   -6.49443700886363    3.14287548264013
C           2.11069740234385   -6.72752936511426    4.31918894388592
C           3.26787808144829   -7.40444006440728    4.11530584889552
C           3.50565960804377   -7.75488904029028    2.75752068256132
S           2.17644491009166   -7.17429517395669    1.74918633006081
C           4.57490739441655   -8.43606032624308    2.26544818999100
N           4.72636962631343   -8.73178108765756    0.94505995467670
C           5.73956412619328   -9.42824717717650    0.39300946430160
S           7.02330705562873  -10.07197771526974    1.36893413706129
C           7.74677884346787  -10.75371770187816   -0.05914212404161
N           8.92965057722257  -11.46420592743638    0.09427930168346
O           9.43956889313286  -11.94933005247148   -0.90524880976636
O           9.37821790717338  -11.55419869094965    1.23001397535135
C           7.03592390660395  -10.49446496475548   -1.20252193682766
C           5.87818566051780   -9.73210136784773   -0.97544249213987
C           4.94998090829987   -9.29780051128019   -1.97850194605429
C           4.98037252449821   -9.65611604550197   -3.27808829608444
C           4.02920234777900   -9.16585422788000   -4.21746564515859
N           4.04328619262731   -9.58374156635554   -5.55250805451714
C           3.01974750334746   -8.92406597045264   -6.13062292901441
N           2.33925398274041   -8.71115863235547   -7.28663426501382
C           1.34044310429517   -7.81131644639565   -6.92432438453766
N           1.37094685728714   -7.44332734627246   -5.67133948671321
C           2.42185678044508   -8.13228018773386   -5.13833464427690
N           3.06430628557880   -8.30089307003042   -3.96389327966326
N           0.44305780838858   -7.30757640507232   -7.83081615731023
C           0.14376593064911   -7.82843906242339   -9.05580320614123
S          -0.18912380256975   -6.75556191415851  -10.38041612748550
C          -0.35096074163111   -8.12917415359034  -11.43339595918592
N          -0.68211484769568   -7.88920759738787  -12.76818122934320
O          -0.78409960407372   -8.85077853875583  -13.50983025174012
O          -0.83879831570825   -6.72324945514277  -13.09555172140603
C          -0.15865078500114   -9.32657407821207  -10.79816074939541
C           0.10707947536242   -9.18162289460038   -9.42175675668085
C           0.20352472088551  -10.25511123952058   -8.47147778022526
C           0.43618652665930  -11.55651274305704   -8.77149016055990
C           0.48739004415605  -12.56801749231321   -7.78867855475329
C           0.74600348514904  -13.88677093417428   -8.03847648791963
C           0.79691070459501  -14.93514330656196   -7.07899985479595
C           1.07312745698565  -16.15759339943798   -7.59796345942463
C           1.26316341134657  -16.16040015064290   -9.00401911385297
S           1.07304278135476  -14.53552057821928   -9.64013597132577
C           1.55534370501886  -17.23194942808319   -9.81034629960355
C           1.72972094995248  -18.58875284742809   -9.40987167954063
C           2.01243452225464  -19.43550465881549  -10.42219850369609
C           2.08652185377711  -18.81325258704973  -11.71417573778033
S           1.76907619851809  -17.07908795085332  -11.54227496226274
C           2.34827122148429  -19.39664485263072  -12.89061489173599
H          -3.86287700431311   -3.80307248865898    2.05846507171270
H          -3.14560966392409   -4.44874631100009    0.49329642881869
H          -2.48328907816376   -4.19813306618176    4.29971258168633
H          -0.28593367933753   -5.27765636324882    5.09108617634712
H           1.77324913743986   -6.38552269339947    5.28080654889053
H           3.96697177954272   -7.67001570699413    4.88784016778465
H           5.35771908355767   -8.77582732717877    2.92689680057555
H           3.99873277440028   -8.40062405447828    0.31927141021500
H           7.36688347272895  -10.84585698098552   -2.16181521478263
H           4.15685803682360   -8.62342641135562   -1.68903239486575
H           5.72689577274271  -10.33637247410373   -3.66090744349395
H           4.69142474047410  -10.23429022882463   -5.96372338299370
H           2.45750397307678   -9.14453344430004   -8.18675197818606
H           0.06016105487483   -6.40746300750984   -7.57764457039386
H          -0.25360876778578  -10.26774861930007  -11.30765942446783
H           0.05092772365857   -9.98347894624370   -7.43492057972016
H           0.60865408220904  -11.85876668014499   -9.79575262267698
H           0.30568273126564  -12.28248893353352   -6.76037535572242
H           0.62235327941327  -14.74007909889453   -6.03543870781883
H           1.14676783327662  -17.05874495134268   -7.01613275706385
H           1.63783140922375  -18.88414001004699   -8.37979085498545
H           2.17644241778761  -20.49287364636606  -10.31356649861541
H           2.53488972285623  -20.45442153672394  -12.94908636293597
H           2.37844978125463  -18.83545453720426  -13.80641333931899
