76
 SCF done       -147.648424605234          0.000389442474
C          11.19233293083431  -12.80962841116409    1.12468620868740
C          10.53618679682463  -12.05574268095466    2.01438337783411
C          10.97703182397180  -11.63151066839150    3.31427545756631
C          10.09502522211511  -10.85652682246868    3.97964626249268
C           8.88536486933880  -10.60991803837853    3.26565068322174
S           8.91529481796668  -11.41037133406285    1.71024271544999
C           7.81655658384688   -9.85526707127243    3.68218876726776
C           7.65159917586361   -9.13556419273486    4.89113447451405
C           6.47154799143332   -8.47167095551896    4.99685596695220
C           5.61630269405630   -8.62669561763535    3.87313864511453
S           6.39364967655561   -9.66111630528778    2.66999254383715
C           4.37834142438426   -8.09178228191621    3.68575672483725
N           3.65620569049090   -8.33529836514814    2.55614527185084
C           2.43464947313155   -7.86867722807701    2.24719913747275
S           1.57798815977209   -6.79910474492713    3.31254263828210
C           0.25421343187364   -6.76189535975628    2.18023239960165
N          -0.84630223854288   -5.98412050866450    2.52001916941305
O          -1.78596344507407   -5.94599535690981    1.74142310947103
O          -0.78866248246065   -5.38873193638084    3.58865803060907
C           0.46820506968519   -7.52513039977022    1.06339619486791
C           1.71529968854506   -8.17543005654859    1.07081101843332
C           2.21869018156193   -9.03846002170622    0.05060853757519
C           1.56236553796418   -9.39675354109091   -1.07831961816696
C           2.10408633407613  -10.25946898165272   -2.05733060823318
S           3.69939634847560  -10.96736154778811   -1.95673118706977
C           1.48518322482604  -10.68337929669361   -3.22623597877555
N           0.26002655458082  -10.41559846117043   -3.75310491990055
C           0.09412699257575  -11.02123913469754   -4.85999921589561
S           1.42892328482907  -12.02566633295682   -5.43442652836394
C           2.28953538815085  -11.55881999687110   -4.00725322532429
C           3.53449819940735  -11.83056515055706   -3.47664145358559
C           4.54077129170652  -12.65251598424286   -4.02269777976962
C           5.76455399905986  -12.86944519135297   -3.47999063426326
C           6.74652332909136  -13.70149145557420   -4.06966158723336
C           8.03037156668366  -13.94120315249183   -3.58987257298431
C           8.48720202350740  -13.41875723368661   -2.37339581553514
N           8.83678253388374  -13.01728727470340   -1.35620717600483
C           8.77264151145989  -14.81917247826525   -4.42659269474645
C           8.01468935354627  -15.24813074181685   -5.50896288639143
S           6.42983350494336  -14.57535455031991   -5.55809232776804
S           8.80300380181286  -16.38057605435960   -6.55933342519636
C          10.19864608335938  -16.27408862449586   -5.53058949982111
C          10.06912196481294  -15.40786386110189   -4.45489368852211
C          11.27490699827463  -15.34393880349068   -3.69978316211164
C          11.53903198230056  -14.43270056335215   -2.66927124377860
N          11.81415002050118  -13.67450947818885   -1.85243037637161
C          12.25900406399095  -16.18584587626388   -4.18841468833770
S          11.73957585636410  -17.04089398728955   -5.62085635763522
C          13.60481128678951  -16.32814299083086   -3.68212556668383
C          14.66338314617185  -16.42090027363224   -4.56094369364708
C          15.99275581766378  -16.37423255465465   -4.11368462265460
C          16.27932326421676  -16.22040842728104   -2.78530563043221
C          15.24475179151427  -16.23848006080055   -1.82873843999661
C          15.42306832481426  -16.28843883950698   -0.43639765995425
Si         13.77580146392406  -15.86926777744342    0.18517713070807
C          12.93541517474043  -16.57779808399285   -1.25357028427021
C          13.86039898431098  -16.34550501329474   -2.27662020485019
H          12.18164053208079  -13.17845501928002    1.33934119614144
H          10.77132926820305  -13.04884989794343    0.16466491854008
H          11.94267404019706  -11.92397189758448    3.68786580509243
H          10.26087685950963  -10.44706908588894    4.96050589533668
H           8.41598384790655   -9.12868443923612    5.64722213142702
H           6.17783993784294   -7.87402873085883    5.84089132395600
H           3.92335833383629   -7.45648512826288    4.42942908644580
H           4.10230742068109   -8.94488472858380    1.87784627758033
H          -0.26078843653489   -7.59783705118064    0.27792734613467
H           3.21255978292029   -9.44700174873577    0.19089011718841
H           0.56650953576413   -9.03875307404452   -1.29323358672414
H          -0.79910552081566  -10.95204771691128   -5.44866101160091
H           4.28112049870353  -13.13154976996270   -4.96013773617608
H           6.03836387901633  -12.38900654906772   -2.54908507081737
H          14.46653322547035  -16.47016047306327   -5.62301388878591
H          16.78813987111084  -16.42024848309531   -4.84258470856162
H          17.30210162278829  -16.13378339235866   -2.44808335286958
H          16.40439826559463  -16.11104200218779   -0.02297397810843
H          11.87962848956870  -16.63941068149389   -1.46382047732975
