75
 SCF done       -138.281303144625          0.000689941844
C          -7.95530565550748   -4.72579268956156    1.45047097781036
C          -6.86643101929176   -3.96820672609716    1.64189648353462
C          -6.81146161801755   -2.56746205994850    1.94597654387819
C          -5.56008864428538   -2.07569125256175    2.08757478767066
C          -4.52801999987332   -3.03806709944821    1.91042696096502
S          -5.21653189040740   -4.60657464519658    1.54765007181754
C          -3.16953094734461   -2.83469313710797    2.00071716770245
C          -2.48430499642762   -1.63356205813553    2.29807616486629
C          -1.13028334643121   -1.76644519381454    2.32574827896944
C          -0.66380592207156   -3.07516263142350    2.05158966576279
S          -2.02156853384337   -4.13820017115949    1.74582213518550
C           0.65554582541531   -3.46893999970685    2.03736398356007
C           1.15689941181801   -4.74299050004921    1.77719274087626
S           0.14979107501032   -6.09772904252109    1.37586843398735
C           1.48870059080453   -7.20455596811954    1.27134398677949
C           2.70163868713924   -6.52721855739812    1.49999822773594
C           2.51546808489316   -5.14204509956651    1.79442405274488
C           3.62431504557944   -4.32232285114094    2.05067762443592
C           4.88052555981403   -4.85973847236257    1.98905674296557
F           5.95256968461497   -4.08465897206122    2.23188483957087
C           5.07057542598788   -6.21367672402107    1.65150840470692
F           6.32264581371428   -6.69748699916085    1.55902131307792
C           4.00902803479085   -7.03890299050257    1.40699271908716
C           1.18210887614863   -8.55259412111510    0.99519833521165
C           1.95303744364864   -9.65486870976639    1.19329232540755
C           1.52489946732330  -10.96147323644531    0.86164271019759
S           0.01767524937624  -11.27713809568158    0.01353306786886
C           0.23077509047432  -13.02234496317030    0.01886167170939
C           1.41800365278174  -13.31019607701734    0.64346593300124
C           2.13472990930721  -12.17325113548072    1.10216857458933
N           3.30354201142515  -12.63304765798386    1.66138207733692
C           3.36857232327511  -14.01233768626598    1.55458325266282
O           4.26105284503311  -14.72535526476911    1.93524809573414
N           2.20134245530854  -14.40756705828197    0.92815120222172
C          -0.77385579727776  -13.82247461620443   -0.62426788620284
C          -1.16340196687703  -15.06827679963960   -0.32502036047211
C          -0.68204171017073  -15.87125423172491    0.83979363384752
C          -2.25140995983571  -15.72120301969906   -1.13710045172324
N          -3.50310217532511  -15.64843465861402   -0.40838256501257
C          -4.55478352978608  -16.45756173741840   -0.72920630609786
C          -5.84254561360610  -16.19339068772057   -0.44709973477988
C          -6.92007986302460  -17.09091122295087   -0.71894989327033
S          -6.67971897661096  -18.68998351490620   -1.40935699051012
C          -8.37769980592727  -19.06038934246488   -1.43179436932611
C          -9.07634116361002  -18.01093434924207   -0.93575418284387
C          -8.26323379123355  -16.90975136362758   -0.53533221944469
N          -9.12379679650722  -15.93660954947365   -0.06347675456064
C         -10.42920531622265  -16.37485046842832   -0.15034050670126
O         -11.41885847555250  -15.76677265580019    0.17649899271984
N         -10.38225334718210  -17.65007307993035   -0.68619840425533
H          -8.94029349193144   -4.29886778953367    1.51751932568713
H          -7.88209591864205   -5.77421918089444    1.22705584268078
H          -7.71431784550091   -1.99174735605649    2.04600545329451
H          -5.33478271987816   -1.04924899561093    2.31666015783618
H          -3.00525309706087   -0.71184624594876    2.48527477582827
H          -0.44581175591967   -0.96336036273014    2.53625068132448
H           1.38191658652097   -2.69977883531607    2.26183303715817
H           3.50961608364508   -3.27743479154351    2.28755317390093
H           4.19482018921248   -8.05760527627259    1.11481240708054
H           0.17685688060657   -8.72067266997707    0.62499568983124
H           2.92370663227458   -9.58471863248439    1.66037199577662
H           4.03454390414336  -12.08119021525288    2.07466542021565
H           1.99752909146977  -15.36466715712250    0.70273772595499
H          -1.28312548648776  -13.30628999472187   -1.42970983267573
H          -0.20931418041360  -15.24336537953870    1.58908539793968
H           0.02071891359830  -16.64047465357531    0.51634796371167
H          -1.53198043337976  -16.37966242747070    1.29272579729707
H          -2.02016459502416  -16.77884158684168   -1.29438177028916
H          -2.33129259174137  -15.23508104067960   -2.12123649110660
H          -3.74973090444252  -14.71686254709321   -0.10147295312840
H          -4.28604522218126  -17.39599847784714   -1.19482764656979
H          -6.11651573427388  -15.25347258115470    0.01372352459078
H          -8.70916645714268  -20.00583546429495   -1.80504894822431
H          -8.87172152302445  -15.03361103839055    0.29604811845054
H         -11.20259802584465  -18.20379815473681   -0.85738040158803
