78
 SCF done       -138.964119260013          0.000366506071
C           1.15024949692261   -4.70766754161022   -7.86099606767965
C           2.08758836020185   -5.52700731426745   -7.36070647876001
C           3.03835828877766   -6.30351778986629   -8.09323279214422
C           3.88323996017365   -7.02738365623764   -7.31657701317657
C           3.67360498235802   -6.87628832986029   -5.92434897013302
S           2.32983550960029   -5.79815738427661   -5.62531753438607
C           4.42477976456245   -7.41141087137528   -4.88702809758846
C           5.55603072861075   -8.23936182543847   -4.95338373429888
C           6.13686854657320   -8.47697863945875   -3.73160987126805
C           5.51827253431122   -7.82353322112023   -2.65942139505182
S           4.07670885418147   -7.00395811565792   -3.22247196677557
C           5.94090830629307   -7.83497748705307   -1.32377704892187
C           5.65117513613420   -6.90966540931472   -0.34340072130706
C           5.08203844947345   -5.60666284345090   -0.43778962275131
C           4.64701215525408   -5.15133545947113    0.83433860707635
C           4.95269177256042   -6.00176567929613    1.87483725325337
S           5.80089705840741   -7.38840426638057    1.36441177753242
O           7.39307963375703   -6.97374484302973    1.83907154636870
O           4.04764222372204   -3.97194762503157    1.06214621497475
C           5.13776719469607   -4.89889872225885   -1.65719017052128
C           4.31610709232822   -3.92186175271618   -2.14799854003110
C           4.39779009544361   -3.56319740141991   -3.50995376864583
O           3.43966757387777   -2.75466507852618   -4.04841667504190
C           5.22668427808509   -3.99987402359102   -4.53908847343125
C           6.34751894075032   -4.85643527489671   -4.87792068343591
O           7.08846359416360   -5.53336540099014   -4.19880353693781
N           6.43573398612734   -4.76358062787658   -6.27117658109575
C           5.49091017120787   -3.93708298808570   -6.86909371328529
O           5.39924356797572   -3.73103903445447   -8.05468786747458
C           4.70962196194014   -3.44278418986811   -5.73805607837170
C           3.60228044651173   -2.69594789247302   -5.40299608888435
C           2.67284523046553   -2.03216784758614   -6.24432779407477
C           1.55326631516815   -1.40869653344902   -5.81676989034580
C           0.60998196491460   -0.85570859286465   -6.73692216352249
C          -0.54237096171769   -0.22424132167859   -6.45904021927427
C          -1.05689527939140    0.08777146398998   -5.09149677104657
C          -1.44457125390865    0.21239628340938   -7.60044966885699
N          -1.61874302079739   -0.81598502803857   -8.59930891955187
C          -0.75108596941619   -0.99199859175509   -9.62122076519542
C          -0.59819404867705   -2.15547105070097  -10.30158564073254
C           0.26165060275123   -2.35243710272812  -11.39989125658507
C           1.08463304302930   -1.56357297948424  -12.12613220568552
C           1.81906573167640   -2.21262702968494  -13.17347634991649
C           1.62382513577835   -3.53681402906602  -13.32711294893422
S           0.43193559583642   -4.02667588245505  -12.06672413149430
O           1.03413358516873   -4.89193101978107  -11.08021241218334
O          -0.80381198605993   -4.48546709673019  -12.64603139175999
C           2.14498193427393   -4.51345053236194  -14.22742531862167
C           3.02442306667920   -4.28630671939624  -15.20480068596467
H           1.04893424449568   -4.60893744320124   -8.92864588522470
H           0.48613287735873   -4.15189790837448   -7.22303870918464
H           3.04461499392925   -6.26695615510492   -9.16729590864673
H           4.66580297873871   -7.65963956517856   -7.69732756863442
H           5.93675995448017   -8.61897607540797   -5.88425459383790
H           7.03497717833806   -9.05402864588037   -3.59796009919095
H           6.57811987829698   -8.66711082969356   -1.04618200363930
H           4.68772720853503   -5.86389143235567    2.90156966299479
H           7.97886164805019   -7.73578722881929    1.86813257252528
H           4.00779969704039   -3.47369589813080    0.23487885618743
H           5.90574946640569   -5.25358526214480   -2.33187257868437
H           3.47216939299214   -3.51331117231832   -1.60982020048582
H           7.13736798284097   -5.26060424296163   -6.79957421240123
H           2.90000291004371   -2.10222563273580   -7.29913205720291
H           1.35598087033611   -1.35834060822626   -4.75645956942188
H           0.86755164497751   -1.00685929442586   -7.77926603508861
H          -0.32902964680980   -0.14628473519782   -4.32247918816114
H          -1.96738285578957   -0.47909864749269   -4.89250685242828
H          -1.30685965231206    1.14661707409213   -5.02282013581084
H          -1.02415271198337    1.09493152720734   -8.09366084536616
H          -2.42962177619774    0.48063543227066   -7.20857130547568
H          -2.07569542656306   -1.65657608794196   -8.27112475568106
H          -0.19858386384334   -0.10874957395688   -9.91171266534461
H          -1.15068851923512   -3.03183421226407   -9.99024523630306
H           1.20531966586102   -0.50455512401583  -11.96382266008700
H           2.48835265717196   -1.63454103213546  -13.79139655124020
H           1.75912058089477   -5.51086363510355  -14.06103228863004
H           3.42448987541064   -3.30503502621089  -15.39352513639311
H           3.36789839389500   -5.07972426500802  -15.84433742206259
