95
 SCF done       -175.712429245158          0.000903128187
C           2.94368488110100   -1.29954504824625    9.00683601743506
C           3.28484493451876   -1.05617833219621    7.73326412829987
C           3.81251643874507    0.15798691190109    7.18171876980461
C           4.06058145037208    0.10543863779579    5.85324472318823
C           3.75194785123987   -1.14325909638061    5.24806727622264
S           3.13027939161564   -2.26057281105487    6.44357235849805
C           3.89318522869585   -1.48694900787785    3.92119520465293
C           4.37369433091443   -0.68422542634581    2.86091617979136
C           4.38274696931853   -1.31591588891139    1.65471485275439
C           3.91077404462966   -2.64898847578313    1.68991139824969
S           3.45737449482501   -3.07927453121340    3.32616105545110
C           3.80417222692965   -3.49582565156256    0.60912884996463
C           3.33491656270722   -4.80338931761842    0.60002611579274
S           2.78523314924905   -5.69010015474322    1.99228828125324
C           2.40144192760272   -7.12242887218063    1.07800254499024
C           2.69778182598385   -6.91455061678709   -0.28245831040399
C           3.22481777270637   -5.61952480223233   -0.54894328613501
N           3.57934203477382   -5.24600925337648   -1.78678538667345
C           3.41429271225247   -6.13016652032165   -2.74328165176402
C           3.83903475234330   -5.73040724843884   -4.12650303038694
N           5.02031532260165   -6.50178256879204   -4.50963037102884
C           2.88712373926481   -7.42725542862260   -2.48237972180037
C           2.68492542595926   -8.41620671643455   -3.59419823501420
N           1.61566123988183   -7.94285605034257   -4.47165434325912
N           2.53501971967473   -7.80608599085485   -1.27751278346850
C           1.89195505982636   -8.25621125211572    1.73242212788658
C           1.50821347901662   -9.39143096987142    1.08158965339072
C           1.03422731838467  -10.57071704614303    1.69730422621289
S           0.45566899404093  -11.87653413671536    0.70718817722754
C           0.14996108632138  -12.89275144397151    2.08208663706613
C           0.47006962449078  -12.22378168590650    3.25850661961591
C           0.97135268475460  -10.92413411187292    3.04817908367821
O           1.36889600433497  -10.02038449259168    3.99276931888788
C           1.53558821878609  -10.45232835714653    5.29794280169146
S           0.00083492393100  -11.22496273707657    5.95011832245402
S           0.22076923210867  -12.94474643458375    4.85010748689280
C          -0.34367301831364  -14.20819307980126    1.88213828010200
C          -0.26477963045272  -15.22056532033413    2.76974349685670
C          -0.79971074678709  -16.53408374338461    2.50192031145689
N          -0.50040350402869  -17.49197821716008    3.39047272016836
C          -0.96211462467004  -18.70251156666483    3.15104578023506
C          -1.73985354099790  -18.99837972187420    2.04112736974569
C          -2.02487146909796  -17.93132936650380    1.17752656566458
N          -1.54234505845259  -16.71339619235640    1.41410622443683
C          -2.87118012540110  -18.11275879125166    0.01759832085039
C          -3.26896201424702  -17.08806610684165   -0.76767604289103
C          -4.14182143296953  -17.28787721299917   -1.86925983756652
C          -4.62780930177374  -16.30124048351288   -2.67416719136150
C          -5.55866675803100  -16.46099225841785   -3.77891479301256
C          -6.02218034721067  -17.64064207245021   -4.30318112027416
C          -6.92338418170727  -17.72632984555811   -5.38529727349480
N          -7.64961738133872  -17.86483523761330   -6.26378801281067
C          -5.66857110198891  -18.93371928961112   -3.86416364306357
N          -5.43596056815489  -20.02102222547074   -3.57582377889075
C          -5.90872952637799  -15.13007432123987   -4.25946374146383
C          -5.17917298566257  -14.16797411891256   -3.51885948472957
C          -4.33160448031247  -14.85149872082564   -2.52126888845917
O          -3.56245068763099  -14.32145546223465   -1.75038745480813
C          -5.29688321742737  -12.81706155621664   -3.73836173395983
C          -6.18200605010126  -12.39206457192784   -4.73436137292953
C          -6.90938410138953  -13.35982828292210   -5.46823147932084
C          -6.78742190706213  -14.72571441150816   -5.24889020967312
S          -7.95069873575093  -12.61914549001521   -6.64614325466206
C          -7.40211491851291  -11.04184897811510   -6.14372593486153
C          -6.48651152703472  -11.06586801345330   -5.14608594993584
Br         -8.09079427743847   -9.51271280080590   -6.98326096177811
H           3.05281650499948   -0.53832905377504    9.75897150205524
H           2.55356529109393   -2.25177917187168    9.31590079100159
H           3.98167803860072    1.01669592090558    7.80674979395235
H           4.45621810311573    0.92349325094181    5.27778885094737
H           4.69533385203469    0.33000665981498    3.01444787135471
H           4.71174893926697   -0.86623136143832    0.73446968859318
H           4.10819522469914   -3.11647270476519   -0.35791949889803
H           4.00439275842683   -4.64217167127739   -4.12910595417938
H           3.03590657810641   -5.98004897356699   -4.82468878225728
H           5.79487088529469   -6.27526124083261   -3.89344287617837
H           5.29692046988388   -6.26000291293805   -5.45485614348568
H           2.48093757384819   -9.39894545952473   -3.14230046617525
H           3.60366593927880   -8.46898366274199   -4.18425609587267
H           0.73834940428210   -7.91538570371479   -3.96108633662161
H           1.50042043880912   -8.58428622294664   -5.24871924244469
H           1.80514489449168   -8.19260476815214    2.80648082259387
H           1.56954075455839   -9.40663649627266    0.00268328357807
H           1.73768698810332   -9.56574766200594    5.89771554679599
H           2.34169962862272  -11.18640940534111    5.40175995409851
H          -0.79131253651715  -14.40678256765840    0.91747522513620
H           0.24282231975993  -15.12009335052843    3.71716635581275
H          -0.70081660534858  -19.46092847350490    3.87901982610788
H          -2.11685062134526  -19.99103163524497    1.85641053172353
H          -3.20039530532977  -19.12406108712801   -0.18667164311488
H          -2.92598957502027  -16.08945647814998   -0.54143167324831
H          -4.45374965698827  -18.30908571810111   -2.05006083315670
H          -4.72604386983805  -12.11059787800093   -3.15630257585151
H          -7.36627335677942  -15.42100881427660   -5.83326954952758
H          -6.04433089374984  -10.18580096934045   -4.71589037375665
