85
 SCF done       -139.578500455576          0.000966182369
C          -4.92201378763975   -7.62394567422294   -5.67515933022392
C          -5.29143034592695   -6.71945955851754   -4.75647323931711
C          -6.04089831384033   -5.51436833035341   -4.95976736719023
C          -6.26405550870868   -4.79869545611750   -3.83319763587795
C          -5.71120968727401   -5.36917807797209   -2.65610093423934
S          -4.88763459980880   -6.86788077739141   -3.03825828679675
C          -5.77383134395504   -4.87055495457576   -1.37317313534656
C          -6.40616478820616   -3.68830800185445   -0.92754594383846
C          -6.28561902144708   -3.47246801597954    0.41222715063584
C          -5.55229716437532   -4.46534266441008    1.10154662701750
S          -5.02060865750183   -5.69940025075164   -0.02155099257901
C          -5.28526415865394   -4.46962860714551    2.45469563045509
C          -4.56346854138877   -5.41500804862012    3.17455843632194
S          -3.84395703589842   -6.82095359730239    2.45360063705961
C          -3.16836193204581   -7.39283634476672    3.95943558141021
C          -3.51809099992851   -6.51339099059996    5.01121674314928
C          -4.29460009569583   -5.40084718957775    4.56651216206618
C          -4.72283099169877   -4.42673720649112    5.47909484343984
C          -4.39857215939129   -4.55819061094399    6.80178426562176
F          -4.80385301482316   -3.62882184721639    7.68669569205179
C          -3.65308631633141   -5.66222154181130    7.24933678516537
F          -3.36402698068446   -5.77689475674716    8.55964649432201
C          -3.21969989180689   -6.62542598894773    6.37951562874970
C          -2.41934340281286   -8.57435090639685    3.88134390823252
C          -1.68179874730490   -9.20116783379822    4.85142128330800
C          -0.97988316704775  -10.39874270777578    4.63595779258426
S          -1.08495647688097  -11.15540146151011    3.07045149602926
C          -0.05520707689016  -12.46772679876255    3.50818113262087
C           0.35711646761014  -12.33224312058441    4.84714613057152
C          -0.15717949657037  -11.16362734413249    5.49690858803064
C           0.19901655118658  -10.92008424574242    6.84940519136877
C          -0.27468992846794   -9.72922700065332    7.62555598961294
C           1.02018512372003  -11.82446092855899    7.47978703399136
C           1.51305697525846  -12.97090664332980    6.84229765244955
C           1.19059812654019  -13.22862516962597    5.54199862740970
C           0.32520792037343  -13.50528933046925    2.61749010305858
C          -0.02683828078977  -13.68396189720161    1.32670211592790
C          -0.96901718218067  -12.79799527806004    0.57867724990004
C           0.46534951853747  -14.90351748741507    0.59014874398904
N          -0.52615472026793  -15.96276644174356    0.62853223391984
C          -0.59831475166709  -16.81857577887713    1.68833751461619
C          -1.69929025877867  -17.51642690271326    2.03559369891113
C          -1.72428372454243  -18.50013606947460    3.06766445685474
S          -0.24985209780504  -18.83065140793012    3.93245036418817
C          -0.98564289565763  -20.01811454590974    4.91168188508960
C          -2.31610723015110  -20.17613276040285    4.60987301246090
C          -2.76321116689487  -19.30563694880263    3.54895783161461
C          -4.13240222395475  -19.37913319586325    3.15553292193996
C          -4.71493523055736  -18.51882683669020    2.07500919729306
C          -4.94828130933929  -20.27187330003949    3.79590672408978
C          -4.49887022158410  -21.12262434136672    4.82823477976688
C          -3.20563597757802  -21.08199490016801    5.23734953445400
H          -5.18204188343773   -7.49195070407320   -6.71050214979650
H          -4.35181929188566   -8.49529071764845   -5.41189015345237
H          -6.38079521813705   -5.23823119827995   -5.94213701140085
H          -6.80881110252253   -3.87175867070797   -3.80273178918960
H          -6.92937564851939   -3.03292287308397   -1.60022925485279
H          -6.70146178636730   -2.62555836680162    0.92974078936169
H          -5.68427765691121   -3.63474437685753    3.01471488339267
H          -5.30519849044051   -3.57725511863692    5.16258252701332
H          -2.66899821008914   -7.45864317910732    6.77683360882695
H          -2.42256802318253   -9.02849856637054    2.89642168948941
H          -1.61255238476023   -8.76030337983316    5.82572362870318
H           0.04188310320578   -8.80165232390429    7.14966481166131
H           0.14454933933532   -9.75127046321492    8.62892897673539
H          -1.36050684351850   -9.73402485256203    7.71713944542835
H           1.29890550505924  -11.64915322106735    8.50883794394723
H           2.14983916626906  -13.64782987467800    7.39135488523282
H           1.56582308069112  -14.11198970731744    5.05038572193418
H           0.99933763099731  -14.23310554234236    3.04951518412787
H          -1.93204536188276  -12.72781204123968    1.08621240332502
H          -1.13177679928892  -13.16833294221635   -0.43095931530951
H          -0.56971285346082  -11.78524282555064    0.51168297425234
H           1.38295086057225  -15.28990902075205    1.03842483004287
H           0.66356526821900  -14.66204295911461   -0.45908238518945
H          -1.41586930708044  -15.71819737687289    0.21374527102284
H           0.33617617065922  -16.96715436797053    2.21167340594007
H          -2.60951583026611  -17.33647554175867    1.48988766637716
H          -0.40873970737912  -20.53510836264650    5.65166108097103
H          -4.60986123181710  -17.46301493553467    2.32238156055336
H          -5.77474946665629  -18.73576177566361    1.95911300848596
H          -4.22456878544747  -18.70971703015410    1.12096418447211
H          -5.98751850196867  -20.33393682124509    3.50506619834475
H          -5.20170256896655  -21.80247791446496    5.28697136771638
H          -2.83367294950023  -21.71797287203209    6.02653700548833
