76
 SCF done       -152.352451808206          0.000882543395
C          13.89528932385849   -8.03370209281560   -6.07901044133969
C          13.31866119237662   -7.30764096389194   -5.11340692392297
C          13.91732307462906   -6.27340251129245   -4.31597845348242
C          13.08723664755167   -5.71527798360794   -3.41085491806848
C          11.76764017986215   -6.25765244473086   -3.41222604601290
S          11.62777704383420   -7.51141681424791   -4.62653181047056
C          10.72039965459479   -5.89175693297066   -2.60670389126152
C          10.70311516781039   -4.91397394394533   -1.57699723056724
C           9.50706020606696   -4.78449145274934   -0.95622213564297
C           8.49152184921851   -5.66296738693970   -1.44131850727543
S           9.13932244053451   -6.64457912034281   -2.74859243128673
C           7.20317587844251   -5.65457580122891   -1.00295256101488
N           6.18288312438140   -6.49008870357325   -1.36505954492617
C           6.23298818353148   -7.79118144574454   -1.72203916677154
S           7.61883953140818   -8.79452548489786   -1.42552448377392
C           6.68043813374533  -10.20051491428837   -1.85466158469461
N           7.22065138414587  -11.45688178206608   -1.67073087205031
O           6.43876967886286  -12.41231438228642   -1.70434543441707
O           8.41416104803651  -11.55002835290660   -1.42846670203797
C           5.40077547535079   -9.89198536964950   -2.25094848444319
C           5.11485795518937   -8.52410337114724   -2.18161212143403
C           3.83438897565699   -7.93229973039352   -2.43866630302552
C           2.70332242412660   -8.64134872761769   -2.63388659122696
C           1.41387688841386   -8.06376558874834   -2.82255338999489
S           1.26813312344464   -6.34273688326306   -3.12115965250075
C          -0.44905808741465   -6.43497835599105   -3.22820834666722
C          -0.87808883835075   -7.70161422847112   -3.04422947111712
C           0.15801074524427   -8.64379900606144   -2.80267265858914
C          -0.37898002825750   -9.98420015454763   -2.61031079296758
C          -1.71961829209672  -10.03616951353556   -2.73990408925362
S          -2.53835966823587   -8.44010495305111   -3.00791981470509
O          -3.06549364494201   -8.41137647602230   -4.37006428751004
N           0.46632768437467  -11.03313771933804   -2.30805500866981
C           0.24143835775406  -12.37042260494032   -2.38624297417240
S          -1.19540058252667  -13.03947843802934   -3.08121222516950
C          -0.52694096863646  -14.63472054166864   -2.92231983923581
N          -1.31344774146146  -15.71128923960930   -3.33402478422351
O          -0.84973648543809  -16.83159817660896   -3.21938814445257
O          -2.41786970541685  -15.44380337138777   -3.77895859722368
C           0.72559619602387  -14.63873938167714   -2.37162691576054
C           1.18088458375354  -13.35154699926622   -2.03475158135174
C           2.46999864523455  -13.15093154917175   -1.41481610151170
C           2.82865390017472  -12.14473804364389   -0.60150530634935
N           4.07750862980220  -12.06056336182679   -0.03538085160391
C           4.55635654694500  -10.96135454808225    0.58141731509584
S           3.67997896418255   -9.46161336083249    0.55024875798176
C           5.05263869931347   -8.66254387611100    1.26327145092940
N           5.04965440885270   -7.28834387951501    1.28059583321066
O           4.11046597748498   -6.72166674191528    0.71148570036623
O           6.00038564014222   -6.69903817123088    1.77982294554997
C           6.08277777063363   -9.52773087835324    1.56161559315764
C           5.81577908984373  -10.84729391539506    1.19017059351745
C           6.71250302219423  -11.97704649193630    1.36621369336081
C           8.01865696210745  -11.87482699333260    1.58122208891116
H          14.92667806174861   -7.87752833710664   -6.34200139386789
H          13.35483665879251   -8.79025525696839   -6.61747255408245
H          14.94713403890150   -5.99866627862450   -4.46020985205412
H          13.36730002023903   -4.92932333806287   -2.73243975512139
H          11.57852604824900   -4.34251570787095   -1.32734675547572
H           9.30452684103906   -4.10166526187083   -0.15100514925873
H           6.91366934745905   -4.88737601400325   -0.29855022864950
H           5.24807673262745   -6.13748270085200   -1.17181035403150
H           4.72170609419664  -10.65266920625945   -2.58879790635695
H           3.76756954200774   -6.85378147584956   -2.42741831334967
H           2.76666173467166   -9.71938470790660   -2.65553414704996
H          -1.02049696720598   -5.55199284754475   -3.42935810942593
H          -2.34762693441562  -10.89624159358159   -2.61832412371491
H           1.42144120679144  -10.77322273976491   -2.10051487775207
H           1.28195623975258  -15.54253407100811   -2.20176988813722
H           3.19197073269801  -13.93408976094112   -1.60460660271475
H           2.14871063784075  -11.36593073464393   -0.28454799493565
H           4.76385458871072  -12.75982269454210   -0.31127640134384
H           6.99578906903990   -9.18854480139571    2.01473736419106
H           6.25278799149182  -12.95427495653201    1.30572304137686
H           8.52554988116755  -10.92636662302301    1.61643415072424
H           8.63257806797175  -12.74891773477337    1.69994735090125
