107
 SCF done       -183.092099194991          0.000243672468
C           4.66331343097908   -2.07782830070291    9.30162817094589
C           5.58648664965715   -2.52526741284324    8.43881257643597
C           6.96709150055302   -2.14634219469860    8.35339188956559
C           7.65751143568508   -2.77016311201147    7.37222715815581
C           6.88837455836348   -3.68719145416820    6.60517807238610
S           5.23639490431757   -3.72787020681831    7.18627649816256
C           7.31567887529004   -4.45730794491531    5.54704855708413
C           8.60936170822037   -4.51390821594672    4.97727075815698
C           8.71047666171107   -5.37386229458291    3.92740781482636
C           7.50776345747120   -6.04690740085516    3.60503381629157
S           6.23223805957659   -5.54614153298520    4.69779077348568
C           7.34126633365909   -6.95630418188255    2.58661710554397
C           6.18063945280562   -7.63737916234716    2.23516786633775
S           4.64359831984005   -7.49680633508933    3.04382423778935
C           3.85311011272413   -8.62807474791927    1.98673516378623
C           4.76225426740756   -9.10381687629134    1.02773580004750
C           6.06566085749866   -8.55091809943969    1.16616515360137
N           7.06204653055149   -8.89364421232142    0.33587136022572
C           6.78238192188075   -9.75913120984889   -0.61230152692507
C           7.90721657595082  -10.15032276690638   -1.53415062853765
N           9.14475280800405   -9.42685571698897   -1.32970354616606
C           5.47375837439208  -10.31120911599391   -0.75862857394926
C           5.14180794790468  -11.27830511435207   -1.86034942253552
N           5.32172900248092  -10.63273707450915   -3.15717767087292
N           4.49267520397564   -9.98725643893111    0.04611063026492
C           2.48902238548111   -8.95637030375791    2.14093178873672
C           1.87394708390576   -9.83147752472334    1.30907161877359
N           0.56655079540061  -10.19808245591887    1.40669840982506
C          -0.06248387208179  -11.01278702453087    0.53094434791615
S           0.75663845211914  -11.52285183992312   -0.91524412211307
C          -0.69227932326809  -12.33136828765637   -1.43762235055429
N          -0.64159699140284  -12.99925895623962   -2.65339641032479
O          -1.64797296676772  -13.57348593164374   -3.04040659540715
O           0.42447207834226  -12.96071340766244   -3.25757346865620
C          -1.72808819182282  -12.20549330633221   -0.54937860368943
C          -1.38936492099721  -11.47288855544787    0.60381970827568
C          -2.33250199781025  -11.28729109214913    1.66859877207160
C          -2.08198964470983  -10.97363243525121    2.96099220276550
C          -3.10269785905352  -10.85273480487154    3.93836928551601
S          -2.69778962802935  -10.47674166054547    5.58494538953077
C          -4.33611369513928  -10.54890978594940    6.14274894943129
C          -5.18000113480809  -10.85500564659302    5.06907620063824
C          -4.48663397759693  -11.01692449496830    3.82621586667503
N          -5.16061283358244  -11.30251800515159    2.69240552131917
C          -6.45849375530710  -11.42732266762587    2.78080033484906
C          -7.20486333692574  -11.75822818258452    1.52071249775766
N          -7.75568968988238  -13.10810950898300    1.62233275168521
C          -7.14932643741605  -11.27431276277762    4.02290314388034
C          -8.64419598054875  -11.39857960613005    4.09143152090077
N          -9.24921360229313  -10.23571931169430    3.44649109036087
N          -6.52106511036365  -10.98836393650413    5.13244186196591
C          -4.64762756993475  -10.30567463967136    7.50509032194814
C          -5.90035967279047  -10.40463146497964    8.00162361154196
C          -6.25308882625794  -10.20813755351964    9.38333245534065
C          -5.37897779118176  -10.47294544397313   10.40093648521671
S          -6.05519669065023  -10.36281173766240   11.97456243303311
C          -7.59168869673177   -9.92689894608898   11.28792699549396
C          -7.55961253856634   -9.84475862739674    9.88633763942446
C          -8.71253912881724   -9.40652801467854    9.19231043621656
C          -8.65024045069356   -9.11189560718288    7.72158887001546
C          -9.89790789461104   -9.20393556861715    9.88180406631978
C         -11.15434325750212   -8.82671594493371    9.15024221723727
C          -9.93241721594464   -9.33529658650407   11.28635051006363
C          -8.76091422152298   -9.66926712295141   11.98464618237838
S          -9.00580830756577   -9.72037937977501   13.70274484181228
C         -10.66931833337190   -9.30179869414943   13.48388645817526
C         -11.01820800032668   -9.13211341550117   12.19176297855579
H           4.91816744182982   -1.34565647702151   10.04723817390741
H           3.64887173378636   -2.43094934950385    9.27759422652350
H           7.38022155326193   -1.42173855660219    9.03238394609007
H           8.70044627960547   -2.60594369951095    7.16661578168028
H           9.42346729630200   -3.92137708356704    5.35398183085178
H           9.61278556393258   -5.54902692690884    3.36824516970745
H           8.20251845479545   -7.18100837956363    1.97069284469148
H           7.57239024918675  -10.01367993661369   -2.56680927987516
H           8.11068846387396  -11.21930407723042   -1.39818254362794
H           9.43279665563876   -9.52299975010034   -0.36048962087884
H           8.98615352295280   -8.43653990656237   -1.48733104204204
H           4.11793719002877  -11.64489492537973   -1.68923398416869
H           5.82932829184945  -12.12896849926578   -1.81526076148603
H           4.65807925744372   -9.87046260840750   -3.25392154880079
H           5.12790452428869  -11.29736857094031   -3.89838189093553
H           1.95016055695108   -8.48018590990765    2.94941691931567
H           2.44173480295346  -10.29014879457824    0.51266777285931
H           0.00304939642438   -9.78329434637086    2.14018456108167
H          -2.69213035348484  -12.64890348739065   -0.72022888263339
H          -3.36392066905861  -11.47386880789323    1.40491354027676
H          -1.07527397503459  -10.85580704389391    3.34138611435905
H          -6.51639271097882  -11.62579285294555    0.67211265526457
H          -8.04182517102667  -11.06186867991044    1.42037959409965
H          -7.00187521192475  -13.78562895351071    1.68293130938533
H          -8.29522355853810  -13.32234682534370    0.79077921880656
H          -8.93029580769826  -11.51449767924069    5.14899125268733
H          -8.94697120920851  -12.28903370403037    3.53509290988372
H          -9.01260604828748   -9.39239937602940    3.95999389638950
H         -10.25909987133964  -10.32663082126062    3.44481920327351
H          -3.82025175045615  -10.01101046362626    8.13705959743231
H          -6.68347637677628  -10.69820126041854    7.32211875001976
H          -4.36105614585467  -10.79642804248849   10.30561167378949
H          -8.89607386078274   -9.99493385670711    7.13142837663397
H          -7.65414792584661   -8.78004673857626    7.44241005257610
H          -9.35355494958703   -8.32435930295189    7.46325107769619
H         -11.14261611812050   -7.76873502317562    8.88458413296471
H         -12.02927651489607   -9.00889911512444    9.76544468819196
H         -11.25740156424813   -9.40793971115186    8.23665539441080
H         -11.29161528341790   -9.20554605483655   14.35202586116523
H         -12.01487235845149   -8.86165303489568   11.89403077944672
