95
 SCF done       -173.280482827400          0.000498234469
C          -2.97986589267638   -4.40029429842890   -1.36511103073614
C          -1.79513611935362   -4.03581969762142   -0.85793214467135
C          -1.53516190195310   -3.01639767425990    0.11918705439845
C          -0.23218745437473   -2.86813334135978    0.44018146512779
C           0.64646413824154   -3.75159949383250   -0.24935016076268
S          -0.26358870561985   -4.79049660859442   -1.33256148933200
C           2.01101488537304   -3.82849336928159   -0.13613143065720
C           2.87466079369421   -3.04725841967763    0.67566853614722
C           4.19129385860818   -3.35007632392490    0.54930020670776
C           4.46027168152551   -4.39663975827766   -0.37317627647237
S           2.94300358131357   -4.98671794275594   -1.06723279616067
C           5.66921195455501   -4.90783180434143   -0.73545462524137
N           5.76299201349711   -5.91361389082475   -1.64559369899668
C           6.87130062606697   -6.49668738971652   -2.14013767743759
S           8.45249461822981   -6.12558042881210   -1.52785135489475
C           9.12346075338763   -7.35240449893552   -2.56486968845037
N          10.50104612408484   -7.53429238344102   -2.52243171083293
O          10.98995799214502   -8.39034598557331   -3.24196272583598
O          11.12580314732221   -6.81308196039233   -1.75554905810624
C           8.18079239978631   -7.99967911092709   -3.32110508948552
C           6.87977433931303   -7.51114749230168   -3.11653877986259
C           5.72939472088985   -8.01862936542400   -3.81253004363967
C           4.57323591707419   -7.35743167476343   -4.04489620234883
C           3.42631617252238   -7.91336347658770   -4.66064463991114
S           3.29993927123656   -9.55319404004893   -5.25506973554110
C           1.62871528670891   -9.39074912456213   -5.76846938041519
C           1.22403757122629   -8.10755498020347   -5.46735164395774
C           2.20778556547950   -7.28771494938126   -4.85928450449535
N           1.64423330131963   -6.05696533468173   -4.61401464585785
C           0.43987793682348   -6.16604605980328   -5.04453892689338
O           0.09155285986831   -7.36457251751431   -5.57974643139260
C           0.94324661982971  -10.46941733675521   -6.38596375509000
C          -0.32158202220630  -10.36692953164624   -6.84889437678777
C          -1.07259000272981  -11.41734272002116   -7.49005117085926
C          -2.20113062508534  -11.11160612367017   -8.28005887779763
C          -2.64374323547240   -9.69710173733863   -8.50339444192872
C          -2.88516601947359  -12.14646240057382   -8.87734127843751
C          -2.54704898057232  -13.49858898896114   -8.70504011731650
C          -1.40562407982963  -13.80212931942972   -7.93645475191695
C          -0.70540757575369  -12.76020156040622   -7.35911079806918
C          -0.88222549484195  -15.19509392675625   -7.76190331903160
C          -3.40406302669575  -14.45990092840685   -9.34981335270348
C          -3.67324733168949  -15.73452988604019   -8.97614384609993
C          -4.57292421824921  -16.56014442253445   -9.69361404171799
C          -4.90976791007918  -17.82130109524900   -9.30058457989753
C          -5.81528073913456  -18.61338478998396  -10.03227614341768
C          -6.21936292998076  -19.87587146194427   -9.68353545633876
C          -7.15499232055195  -20.71583155677837  -10.40243009224629
C          -7.80052278869257  -20.42273285902971  -11.57804607888893
C          -8.70443356864325  -21.29127110537791  -12.22366752395327
N          -9.45000109631286  -21.94784534815410  -12.79972089720259
C          -7.66678443986355  -19.22992793731506  -12.31759237092637
N          -7.61922605226116  -18.29383276480203  -12.98222048625850
C          -7.30223327808150  -21.96003700898641   -9.65241284734759
C          -6.47665299880854  -21.90015069317529   -8.50389194693529
C          -5.76751525720347  -20.60442283176651   -8.47669367550268
O          -4.98170620796509  -20.23844968526418   -7.62630253066263
C          -6.39689286370528  -22.92407081108125   -7.59232640669705
C          -7.17138225874534  -24.06559471056608   -7.82363985643220
C          -7.99375098446179  -24.11765952289115   -8.97362359660915
C          -8.07322301854893  -23.08166856148784   -9.89605907173951
S          -8.86872742441462  -25.61681069993204   -9.06594642890445
C          -8.12583152176832  -26.14550546983020   -7.57972103757070
C          -7.26826316671445  -25.24776646554875   -7.03949985335769
Br         -8.55695443736635  -27.83098550423640   -6.87826764082104
H          -3.88555873457683   -3.91523550731205   -1.04678367806752
H          -3.06710291893491   -5.18456876046445   -2.09451944458879
H          -2.34190692677532   -2.44036068577483    0.53644506899324
H           0.14043605387963   -2.15344392127302    1.15244364172943
H           2.49152965158991   -2.28134073877549    1.32548686451852
H           4.98627365038256   -2.85956932554574    1.08185337552556
H           6.59095800216438   -4.52171622887711   -0.32811427131717
H           4.87960382623109   -6.29721688479461   -1.97021888625009
H           8.43533432010324   -8.78141733293583   -4.01363884608944
H           5.82824428633939   -9.02595209263470   -4.19686824184225
H           4.44727202769296   -6.31008466483361   -3.80485082592534
H          -0.30405565493590   -5.39476114804622   -5.01424190025731
H           1.51305827066478  -11.38087921739971   -6.49148968879685
H          -0.81295256215863   -9.40984658421956   -6.74931423185667
H          -2.95551982715666   -9.23801381427860   -7.56545799285359
H          -3.48433248980989   -9.66731006098142   -9.19190547204117
H          -1.83461625002835   -9.09969294065026   -8.92063382944812
H          -3.74629193950322  -11.91465337070137   -9.48920003063879
H           0.16005138825792  -13.00229672887735   -6.76060497885701
H          -1.37439304402417  -15.68995428353501   -6.92450930118494
H           0.18378008609587  -15.16754365644698   -7.54574350642812
H          -1.04170602664066  -15.79058320070281   -8.65765807169991
H          -3.94598537422779  -14.07410451060829  -10.20699231016574
H          -3.24256859211662  -16.15581988852087   -8.08162797437294
H          -5.01040641791415  -16.15746631330339  -10.59997239812755
H          -4.48281928099750  -18.23492420430335   -8.39888520896060
H          -6.21911904683602  -18.17188240331442  -10.93444896350611
H          -5.75725666137061  -22.84637330002240   -6.72710972605364
H          -8.71608909399329  -23.17156948249183  -10.75544854951535
H          -6.72593090194750  -25.40999558619543   -6.12597934212927
