96
 SCF done       -179.537768938879          0.000747607339
C           4.19569893489363    6.37169635095334   -5.08816676431803
C           3.51016145661840    5.23180591002185   -5.24282928776262
C           2.31281724143229    5.02270086348983   -6.00764090052333
C           1.84149384355074    3.75819453101230   -5.97537924728636
C           2.61931458281514    2.86155918046476   -5.18694666540535
S           3.98969189266753    3.70364917984006   -4.48712275242847
C           2.37933622510593    1.53019701245587   -4.96332414697618
C           1.30672753222415    0.73989309329056   -5.45362289987186
C           1.32756018885889   -0.55146329714340   -5.04135917294589
C           2.42080645662254   -0.87373198130332   -4.18966178889980
S           3.43744776970588    0.55246674007884   -3.95894865553144
C           2.66716171320541   -2.07621282781114   -3.60526933399524
N           3.72039699712238   -2.29210474959119   -2.76586599993323
C           4.06075592376732   -3.43800105750039   -2.12958088512459
S           5.05154276701734   -3.31541050622644   -0.70307624070862
C           4.91184464075068   -5.03210533885366   -0.47041594556281
N           5.58530255334484   -5.59558892885358    0.60967338134720
O           5.48645509752955   -6.80015934894864    0.77925459616582
O           6.22922742629585   -4.83217212597486    1.31579390011904
C           4.15228137710005   -5.64567343855032   -1.43190425546006
C           3.66861471912785   -4.75724113126110   -2.40863345597255
C           2.96658188063514   -5.17688044746845   -3.59473754301219
C           2.18168343862949   -6.27427615434164   -3.64799753945226
C           1.50287967921342   -6.76472616201203   -4.79754374360873
S           0.08055227486479   -7.71933736597497   -4.56515080465849
C          -0.21844266086617   -7.89132734377821   -6.26638657749612
C           0.76287843256215   -7.21166020132443   -7.00194939674227
C           1.75386142816196   -6.59269414446166   -6.16854723667793
C           2.84927310189133   -5.95172514397978   -6.76926432046295
C           2.91662783084935   -5.83737666013163   -8.13768960624355
C           4.08775813488578   -5.14364213655424   -8.71578199732875
O           4.92213169316186   -4.56151255018292   -8.06361204255362
O           4.12968456163487   -5.22426474651158  -10.05522272235347
C           5.22847293621135   -4.57769017566990  -10.67766296000132
C           1.87989525691211   -6.34977379675300   -8.95284414771912
C           0.83458394970612   -7.02794528304519   -8.40025222576412
C          -1.35492061462481   -8.64044269529887   -6.65734581630233
C          -1.57957756401385   -9.24121723461872   -7.85333261582413
C          -2.78721229757333   -9.92813904934377   -8.14587716541870
O          -3.83542029765660   -9.88847270208127   -7.27880652799048
C          -4.85631447532709  -10.59610008630222   -7.80292771148353
C          -4.47891532633407  -11.12662976667378   -9.04304508665303
C          -3.14944040895543  -10.68811875702292   -9.25139697987006
O          -2.39452075475863  -10.98250781217750  -10.34404083413249
C          -5.30926441660979  -11.95518651517515   -9.93048187449653
O          -6.44032329759280  -12.27783775247451   -9.67148896875749
O          -4.72337105392869  -12.33939180381723  -11.07359747822228
C          -6.08744527571216  -10.70078994638530   -7.11825340691483
C          -6.32115692927169  -10.08239636716961   -5.92901650422645
C          -7.52905346513563  -10.13687598658385   -5.20867427826671
S          -8.89838659911259  -11.04295291239037   -5.75130473907174
C          -9.87996073109384  -10.55712487826020   -4.41205101696113
C          -9.15759331695133   -9.74410761101381   -3.53318244788502
C          -7.82364478310071   -9.49318815415595   -3.99190169497714
C          -6.97049602247782   -8.67733643425911   -3.23646849089167
C          -7.40854954716631   -8.14422683693906   -2.04629017668320
C          -6.47717831433836   -7.27947941469378   -1.28942543144948
O          -5.35751573034339   -7.00356481831461   -1.65141173193263
O          -7.00814253407365   -6.82074489436196   -0.14455262692777
C          -6.16795431692638   -5.98316082332700    0.63271819251986
C          -8.70620642136229   -8.43943847250244   -1.56280882331698
C          -9.55958580198107   -9.22106409419479   -2.28252537762222
C         -11.24207330246772  -11.01284571653278   -4.38609019995205
C         -12.26862051375056  -10.42493858809810   -3.77213507568010
H           3.86767387015926    7.27808953693560   -5.56563845141358
H           5.08635097700666    6.41988994196028   -4.48886130860004
H           1.86003204476405    5.83541159628889   -6.54750584069523
H           0.95717829813282    3.42645114443412   -6.49029742910222
H           0.55069569853621    1.15670472495744   -6.09428551893340
H           0.59605853213203   -1.29255270952331   -5.31007476265386
H           1.99146043103584   -2.90076878801468   -3.76482533977986
H           4.24447200842578   -1.46230288871519   -2.50786741027658
H           3.99630904442128   -6.70879311007276   -1.44535335768656
H           3.10425806739971   -4.56588435583091   -4.47360324334287
H           1.96778792945013   -6.80397628619053   -2.72841883558875
H           3.66385271908590   -5.56452047837101   -6.17933235217256
H           5.12720269829471   -4.76330654839609  -11.74390437598746
H           6.17023840535734   -4.98542784275353  -10.30405388660754
H           5.20518203809273   -3.50555377529076  -10.47006944287515
H           1.93691795442471   -6.19921242307862  -10.01882560629572
H           0.04246567715024   -7.40075294697073   -9.02855803252453
H          -2.10485778741940   -8.77933244543753   -5.88932882898951
H          -0.82648918978132   -9.24076183451848   -8.62740037715930
H          -1.51510116695613  -10.59872882494058  -10.25177071726937
H          -3.81375992626663  -12.00829897880010  -11.14500688482183
H          -6.84331165651057  -11.29653078164238   -7.60790081732031
H          -5.52847940425979   -9.49172892693013   -5.49038675776095
H          -5.96699747566862   -8.45899361900966   -3.56720704600907
H          -6.75304688082844   -5.68324120217718    1.49823848081363
H          -5.86216194597470   -5.10922803840453    0.05341257270626
H          -5.27309088227676   -6.52646279376891    0.94382683919812
H          -9.00369308820138   -8.03720880679249   -0.60782406167643
H         -10.53295707954818   -9.46621330845007   -1.89091218996540
H         -11.42410375916285  -11.90073811336380   -4.97960259890726
H         -12.17119736433565   -9.50124424582680   -3.23060444544568
H         -13.25671595224127  -10.84721856450095   -3.82549369827234
