85
 SCF done       -146.704031730279          0.000665942764
C           2.27172422327069  -22.22951309712935  -10.42011663001849
C           2.30906743867714  -20.89149089937678  -10.39391232757649
C           1.49163201264916  -19.97370856568702  -11.13715394133531
C           1.75546238465060  -18.67123423155336  -10.90225084354840
C           2.80030237088198  -18.44478702630234   -9.95948960024263
S           3.43556781101474  -19.97430659618935   -9.38062562053434
C           3.27966701345612  -17.23549080026244   -9.52888986472051
C           2.85320100366429  -15.93725719249300   -9.91468101033827
C           3.52142735832214  -14.92471888141764   -9.31150816297983
C           4.53147662785738  -15.35192337606234   -8.40362670309233
S           4.57709635083563  -17.11794234807451   -8.34909593289835
C           5.35653757629379  -14.55720050733366   -7.67462051938184
N           6.33067712768170  -15.04382873244059   -6.84780123005394
C           7.09823445592902  -14.33374680600725   -5.98515317563781
S           8.64854884553104  -14.97479520963883   -5.52275554126263
C           8.94641259330841  -13.54355967779295   -4.58215597318158
N          10.13894100082329  -13.47051291467001   -3.86998953996032
O          10.34727775834292  -12.46569566123191   -3.20813557925978
O          10.89485716804396  -14.42812557526454   -3.95803261779204
C           7.91388489001794  -12.64165006243430   -4.63193710645940
C           6.83561559735019  -13.07951317972261   -5.41629265634935
C           5.56606560036946  -12.39361849893467   -5.51795670558279
C           5.39678056271045  -11.06861761050322   -5.40131069232796
C           4.12466163292224  -10.38709437835204   -5.49557326609470
C           2.93399517767145  -10.81717591482479   -5.06232316514213
C           2.70699682142808  -12.09067023920745   -4.30593070095000
C           1.68214390777576  -10.01372355662726   -5.33077809277455
N           0.77963792496579  -10.73557890717708   -6.20559511422698
C           0.95030137412134  -10.74823749850576   -7.55229890101295
C           0.51502818193365  -11.73596914693018   -8.36308472176956
C           0.56851697382031  -11.71034634079877   -9.78706759454770
S           0.54384921525450  -13.23557204826037  -10.65357039949631
C           0.67917275080591  -12.45216491894803  -12.19483835383765
C           0.72619644753099  -11.11743336033198  -12.04061728436904
C           0.65285824924139  -10.66523278522994  -10.69073657679634
C           0.58990453689221   -9.23956527039554  -10.55260731072061
C           0.64878512521571   -8.53805310338368  -11.70462053460820
S           0.81605875925420   -9.67755614168622  -13.09998416850786
O           2.11598356687786   -9.57862671912524  -13.70941850852143
O          -0.32518662452121   -9.61143304314190  -13.97282064556689
C           0.57555290893303   -7.14529142813660  -11.96885904667208
C           0.38682892028283   -6.09302545663756  -11.08155567903260
C           0.36102779998253   -4.87745657174538  -11.82484963927085
C           0.19311945512259   -3.56923424889972  -11.43403899150909
C           0.21005333219187   -2.58217561898927  -12.43346329486380
C           0.06845557748133   -1.20039901515529  -12.36767928362121
C           0.16267095878159   -0.65865288937714  -13.68503630333580
C           0.36318096685066   -1.70910503008700  -14.56453823608210
C           0.39936023686637   -2.93217936043092  -13.82570211095864
C           0.56660909843137   -4.23491423333870  -14.21893620941722
C           0.54779035461411   -5.22729801907471  -13.21817990447610
C           0.67687134305181   -6.60486875278820  -13.29090579726506
C           0.06857452769852    0.73195288184155  -14.06150817166320
C          -0.12266916775681    1.75036521005011  -13.22784512419499
H           1.57138147106762  -22.74646270311450  -11.05210602966847
H           2.93333448460502  -22.82655081035730   -9.81973689187456
H           0.74071736583183  -20.33774925385714  -11.81574204975690
H           1.23964005515255  -17.85151290841308  -11.37000826680292
H           2.05966506874253  -15.79226431920874  -10.62447007775938
H           3.32983477154888  -13.88040906924661   -9.48095312436639
H           5.28061886522598  -13.48435517323811   -7.75469570658950
H           6.55462374323295  -16.02633210798876   -6.96117170145625
H           7.93321016666303  -11.71967611891701   -4.08035615225173
H           4.71223766264118  -13.02514505504634   -5.71202796454038
H           6.26382582436893  -10.42869462304790   -5.30381077750273
H           4.17730760152866   -9.40530530699971   -5.95171571063491
H           1.90454146776820  -11.95595440741787   -3.58123695776180
H           3.60884663359860  -12.39034823608222   -3.77782839091614
H           2.42073660644797  -12.90380287940081   -4.97476130165194
H           1.92873660393615   -9.06134391278916   -5.80470648950527
H           1.15152514225750   -9.81118276977895   -4.39437965017949
H           0.39356449920535  -11.58209239726997   -5.80998075513019
H           1.44374906415584   -9.87565901808880   -7.95422943727348
H           0.11701637998153  -12.64107443241398   -7.92335397275503
H           0.70754403767642  -13.03639519297831  -13.09142554529624
H           0.46107689121403   -8.77421690404808   -9.58879201420491
H           0.27113161167809   -6.17061234592093  -10.01639568507859
H           0.05122700497749   -3.29977235010131  -10.39647881208497
H          -0.08829311060249   -0.62971391378705  -11.47053568001019
H           0.47412515925026   -1.62924329328991  -15.63065444481199
H           0.70633188569084   -4.50730078350080  -15.25528000363372
H           0.82580009005610   -7.20033274955804  -14.17236622234717
H           0.16690504120240    0.92208396029163  -15.12315153802437
H          -0.22669013866742    1.61263480533476  -12.16536587788747
H          -0.18165005581294    2.76456762639539  -13.58279766240703
