89
 SCF done       -152.481526209146          0.000277240903
C           0.21186163504638    0.39160277387371    7.62859145311260
C           1.03144494280289   -0.48822069701359    8.21885302677688
C           1.76996982555222   -0.32708739499139    9.43830154138291
C           2.51945311172148   -1.39548379424082    9.78627954224067
C           2.45303031493076   -2.48675664256679    8.87551872395644
S           1.36370807234169   -2.09571595746130    7.55439832730656
C           3.12274967026856   -3.67849097477610    8.96541241442700
C           3.97647385243209   -4.10776230154686   10.01259215266512
C           4.51531954132281   -5.33701655710964    9.82185748216224
C           4.13272578200870   -5.97908425783108    8.61298148732808
S           3.03242923058506   -4.92623507958731    7.72886135816688
C           4.57108117845239   -7.21074929373487    8.22268854118839
C           4.27887432905441   -7.97831948525730    7.07819918760290
N           4.92272794128800   -9.19089981264741    6.90636927520072
C           4.56556263137576   -9.81865963579846    5.76353432218396
C           3.63863637598218   -9.00762467096882    5.13447268711666
C           3.44958918013907   -7.85900534926715    5.95537951510525
N           2.52407457916232   -7.06207166544019    5.35870592884432
C           2.13655030193067   -7.64825938896874    4.18059768517960
C           2.79385267954303   -8.83860734463890    3.99520799069955
N           2.71360593991628   -9.70558689480721    2.89446013222002
C           3.80017598163993  -10.38200499342292    2.44571687767438
S           3.66401467522817  -11.98622060172833    1.79980737654136
C           5.39615594752390  -12.05530070100725    1.62569884343500
N           5.94582147582150  -13.20042631416371    1.07015364914090
O           7.16221354297021  -13.25512136944218    0.95780126713403
O           5.16906369847023  -14.08574773245520    0.73386415089077
C           6.02430192730624  -10.90756730938838    2.05000783895793
C           5.12775362292290   -9.93232277253924    2.49571917236114
C           5.42622223305432   -8.58673636080449    2.93265820250324
C           6.42241310583021   -8.20961913927257    3.74952994460401
C           6.44898703721846   -6.89704186618029    4.31951898450068
C           5.76688707343291   -5.77233519232437    3.90879080562376
C           5.80955107586271   -4.72406893684034    4.82440670657402
C           6.53183316805965   -5.05021326055424    5.96239348465865
S           7.20080796958658   -6.63746590609315    5.87531811998307
C           6.54882204581479   -4.10448893045438    7.01745908379843
C           5.81796478311266   -2.93611597060531    6.85339421163360
Ge          5.10891867541419   -2.89723641287017    5.01557644898339
C           6.14075165004912   -1.60356226508005    3.91781138861153
C           3.16348039112708   -2.71596884553025    4.68771975642874
C           5.85380105452145   -2.12801346629774    7.98742736835593
C           6.59928796296804   -2.66106387715241    9.01805234290463
S           7.29911809652818   -4.19761391674503    8.56882972803978
C           6.80143554358883   -2.13076817137764   10.31881756804676
C           7.58514524472387   -2.63131555642356   11.33635676995026
C           7.53787863173002   -1.86604512055560   12.50259232753668
C           6.70131921852590   -0.76940947235166   12.37442262151330
S           5.97372114323319   -0.67211780461472   10.81274666562450
C           6.55930997988059    0.09296748925262   13.49607289695894
C           7.27325682479051   -0.21141115108770   14.64063606366014
Ge          8.32586152027186   -1.84162612416364   14.30855836318599
C           7.80384863461877   -3.39192847077712   15.43415455467390
C          10.28645509509264   -1.53496556403410   14.30077785727854
C           7.03801981875681    0.72150852580387   15.66532923765306
C           6.16693390824700    1.70014151495527   15.29706488631527
S           5.60123000422513    1.51615425234640   13.67932663686319
H           0.03720278152517    1.35745932234605    8.06833982864100
H          -0.29589438134617    0.16481161293256    6.70916383779721
H           1.70651704775931    0.58730393119585   10.00096863135584
H           3.13699529021485   -1.43740400042278   10.66557981244504
H           4.16343470487393   -3.49314635361855   10.87455510127599
H           5.18889190142418   -5.81619877319642   10.51088854970566
H           5.27546696319695   -7.67554204994214    8.90364335911172
H           5.60476706895653   -9.54039058113660    7.55970042723595
H           4.98344184326478  -10.76332239895487    5.48095093209443
H           2.18348206027735   -6.18376371976725    5.71101533939138
H           1.40521140938419   -7.17948723349756    3.55168034271279
H           1.80458642089903  -10.06878978557132    2.64508447604912
H           7.08947827554089  -10.77747704465052    1.99091237205611
H           4.68648903475374   -7.85278400740947    2.64786052740840
H           7.14815847653643   -8.92519626468610    4.10896803811700
H           5.25380144128170   -5.71122822028178    2.96537182261580
H           7.20693367424438   -1.74882038919248    4.06147028425401
H           5.88839302303055   -0.58578364573411    4.19934691651746
H           5.91076100467498   -1.73680436635794    2.86536759271522
H           2.84007106678090   -1.70417049550577    4.90834855913424
H           2.59218823289160   -3.40073519539542    5.30310900179617
H           2.96068409308261   -2.92275571018958    3.64114375720810
H           5.34142246937331   -1.18503123429166    8.07657005875039
H           8.17198213474107   -3.52653040362883   11.22014399587765
H           6.72692166538209   -3.52667265245446   15.42155825875208
H           8.12312889961775   -3.23388792738840   16.45955703494817
H           8.27332214987846   -4.29752789669666   15.06235742397578
H          10.53287660794759   -0.68738024337991   13.66921559083598
H          10.80202105280808   -2.41233312088466   13.92287961164870
H          10.63932000621278   -1.33342320519554   15.30737183949531
H           7.49523743309567    0.67136790208004   16.63834908770572
H           5.81314227043144    2.53034037027027   15.87654261061149
