85
 SCF done       -152.971307955396          0.000843009130
C          11.36435099220208   -6.97544296875909   -0.48826979558552
C          11.27856783764363   -8.27373843239488   -0.17294045676649
C          12.11579962516756   -9.01866720217463    0.72508670893000
C          11.78596682237488  -10.32160778440174    0.84897489679591
C          10.66444833495429  -10.72064696845355    0.06583365711278
S          10.04648328469000   -9.35399951950141   -0.84542408942688
C          10.09796263446491  -11.96669741668625   -0.00193021327009
C          10.48546123982915  -13.14792982497189    0.68368904430850
C           9.70882065376940  -14.22900706369865    0.42574756677064
C           8.64810971400585  -13.98032877394009   -0.48790142195052
S           8.69765116375121  -12.29139808938800   -1.01142112990252
C           7.70451041620228  -14.85905117028963   -0.91780334213693
N           6.72918505595138  -14.51068803091023   -1.80107254938988
C           5.73959619602750  -15.30180985855755   -2.26705741507667
S           5.65337963796356  -16.97856852529960   -1.81679114558156
C           4.28900861389229  -17.17883703635218   -2.87497311567189
N           3.71361065002374  -18.44119603337805   -2.94597421563707
O           2.75470391561709  -18.59340867104508   -3.68643881189230
O           4.21851675137809  -19.31558645833142   -2.25378514362253
C           3.94155451982984  -16.02405543587689   -3.52847624132285
C           4.74458924734037  -14.92622881915598   -3.18190525819726
C           4.52297629167338  -13.61541250364544   -3.75479927729023
C           4.84851789882301  -12.42164373026046   -3.23664077534596
C           4.62221238158931  -11.14292321562910   -3.88085645701542
C           3.58367908838601  -10.77021825740679   -4.63620793212603
C           2.37850583208423  -11.61330623878203   -4.91816964354135
C           3.54063303448038   -9.39589835379082   -5.24985773489454
N           3.37632820324688   -9.51728078598947   -6.68155521628760
C           3.00850915292479   -8.50211323007955   -7.50440690200364
C           2.66676904516632   -7.25442876649590   -7.11502680194236
C           2.19209764583998   -6.19604063283410   -7.94958230531175
S           2.23435923921454   -4.58918921682598   -7.27789796486203
C           1.54626671615522   -3.90099479613250   -8.72722106439216
C           1.30533771758204   -4.88230133010187   -9.66838565658004
C           1.66640371088738   -6.17384251515093   -9.22922978161203
C           1.44522808654161   -7.38379857717058  -10.07891799779770
C           2.71397768127938   -7.89495548014809  -10.76540990375221
O           2.73856830893415   -8.98524692421992  -11.28065146395539
C           3.90775216173430   -6.97914965531959  -10.75194868738764
C           0.38557865481240   -7.10266776523156  -11.15768746062231
C           0.72717609283438   -5.83426680578732  -11.92650759988156
C           0.68241551293417   -4.61762998845971  -11.00283724501004
C           1.32017064740936   -2.49606132325385   -8.76931972684634
S           0.47994934815734   -1.69933333483741  -10.08745389971173
C           0.64962180786139   -0.17193866305898   -9.36070023900135
C           1.31400590874147   -0.24460844873389   -8.15420623168405
C           1.68752833359572   -1.57499612095462   -7.82657027082265
C           1.63195929908045    0.86600518254084   -7.28343874130514
O           2.20881239825195    0.80035691536651   -6.22695016275495
C           1.16999489552442    2.25889441683216   -7.80715414612283
F           1.72109653537823    2.55385995497541   -8.99958642326071
F          -0.16342360183483    2.31320357463786   -7.98109115993272
F           1.49676924609404    3.24033293680008   -6.97141978209808
H          12.12804862041615   -6.35511346912243   -0.05363362444880
H          10.68021564098817   -6.51268883344356   -1.17563849908745
H          12.92938483072456   -8.53777658995390    1.23857471032918
H          12.30531684540861  -11.02239201216191    1.47837335975731
H          11.32905442038305  -13.15620779252373    1.34987418039749
H           9.85210566281163  -15.20361124137137    0.85664163423503
H           7.69135428481555  -15.87576961445783   -0.55538067324327
H           6.78435747946357  -13.57456031093694   -2.18913421888683
H           3.11839300514294  -15.98230155348163   -4.21884494345638
H           4.02539079396478  -13.64605238935283   -4.71294485107198
H           5.33495447546813  -12.34547006042934   -2.27201520366885
H           5.39120518403622  -10.40693790497943   -3.67393306614406
H           2.21668346968465  -12.33512842194172   -4.12150311141256
H           2.48627279327998  -12.15745364191411   -5.85646152640171
H           1.49840972929652  -10.98008794519472   -5.00988539162088
H           4.44910294920206   -8.82982329595404   -4.99835633835711
H           2.67743265552349   -8.84646007766433   -4.85770543497226
H           3.84991700857259  -10.29827601303412   -7.10563893764725
H           2.98889662297458   -8.79032233924628   -8.54338324747440
H           2.78332384073594   -6.97905505542233   -6.07675587665316
H           1.07296518659392   -8.20638308896921   -9.45634662266199
H           3.62836379479340   -5.97641899525047  -11.06383045267919
H           4.68486764619206   -7.37321911587738  -11.40239737065134
H           4.29088733034556   -6.91053179013907   -9.73488998398471
H          -0.58830389281527   -6.98644809471906  -10.67756573149749
H           0.33602272409482   -7.95794855377344  -11.83334340828061
H           1.71778472171851   -5.93464002560446  -12.37296836339796
H           0.01513191461235   -5.69047589891723  -12.74074077429763
H          -0.35995145999002   -4.32173988030388  -10.84201236317438
H           1.18079065023366   -3.77192378988214  -11.48491571529774
H           0.25409194217576    0.68823960969425   -9.86230107901547
H           2.21411454643192   -1.82043405107715   -6.92269594848930
