106
 SCF done       -181.255560876685          0.000482668797
C           2.57863527170172  -13.63076745630508    2.37009961262465
C           3.55430750363231  -12.71186899923937    2.35412465762315
C           4.75190119942277  -12.68566660867174    3.14247968909806
C           5.55426980303049  -11.62292922106511    2.90616460728798
C           5.06678439136774  -10.72416834809105    1.91937111881136
S           3.53064797115257  -11.29104892978716    1.29506059313323
C           5.66457542460396   -9.57197415376674    1.46337468750115
C           6.91182818851755   -9.02604275523921    1.84967011381599
C           7.24390323898810   -7.88847979304031    1.18092807153859
C           6.28595066980610   -7.46600757539823    0.22821933756819
S           4.91830032867167   -8.56509084021806    0.23359081729430
C           6.40273339088990   -6.38486588218224   -0.61453090921619
C           5.48965166016596   -5.97797180308496   -1.58152468442924
C           5.65390241492429   -4.92170094918291   -2.50073188219204
C           4.54305739673244   -4.77457608912475   -3.37631356437653
N           4.51192752555807   -3.82318107902733   -4.31970504562760
C           5.56041410002500   -3.04281282342925   -4.41266593414593
C           6.69146847552245   -3.21201305734759   -3.55824665255692
N           6.72819594601975   -4.12903511743806   -2.61653592428396
C           7.90191803868285   -2.34856747419486   -3.71193695966689
C           5.52320661871183   -1.97513294751539   -5.45404834743442
C           3.51971832324558   -5.70404780557418   -3.15453656010954
S           3.95025816372106   -6.74813571954068   -1.84123192101290
C           2.33110263291674   -5.77645079021765   -3.90946793564119
C           1.25409316302925   -6.63504060562861   -3.77167164704700
C           0.22917931022982   -6.40210019966910   -4.74267721163211
C           0.59164639326603   -5.34869336225002   -5.62531951070450
S           2.15309618916988   -4.66376999759360   -5.24131279739745
C          -0.20550748783033   -4.89163293115995   -6.65807715818229
C           0.26246600764118   -3.79884244745981   -7.57181734228471
C           0.97815407512821   -4.38499073125286   -8.78990032721689
C          -1.44110138242259   -5.52288870453350   -6.82212322252619
C          -1.81846234269737   -6.55123291345328   -5.92773124268065
C          -1.02821745980262   -7.01167589009370   -4.88697167262075
C          -1.55173313437445   -8.11205923653992   -4.01265342813887
C          -1.39215166084121   -9.47645157214157   -4.68617728979492
S          -3.41609882050520   -7.15134737587387   -6.30835486795317
C          -3.54392692212141   -6.04834231883802   -7.63417260798001
C          -2.45742975742232   -5.26628015854308   -7.79076963631109
C           1.23116465396065   -7.63633082971567   -2.71255968709086
S           1.58785859113807   -9.29331694821636   -3.02940359092948
C           1.36499526839779   -9.69153831301270   -1.36935203075460
C           1.03586293194512   -8.62706676994152   -0.59898749538319
C           0.83705467583810   -8.72711395996230    0.87453900078094
C           0.96996482642792   -7.41412154645401   -1.36467045255888
C           0.81392122728537   -6.08152907707589   -0.87868194474485
C           0.30953531647092   -5.64598374610963    0.30326846242171
C           0.45720309713635   -4.29961249182330    0.73359803038468
C           1.48614076498207   -3.50836197824086    0.31145546098923
C           1.71454195589254   -2.19883202913820    0.76436191139950
C           2.85018835570210   -1.48464598383520    0.46549680346933
C           3.17104115927974   -0.13981450577482    0.89032339502499
C           2.34596561516829    0.74289101915843    1.54260499024488
C           2.72271453240266    2.04835062229208    1.91705776187669
N           2.96789218376616    3.11914669512896    2.25260565142968
C           1.01193936024195    0.48987320383448    1.92142239169710
N          -0.07983919055744    0.36889196881187    2.25816579843180
C           4.54778129109481    0.13873712337824    0.48777065800302
C           5.05836970901733   -0.99404102608268   -0.18977508065477
C           4.00733948205932   -2.02667356733699   -0.27753025761241
O           4.11412152980091   -3.09675442399325   -0.84711571913891
C           6.34797912758168   -1.06715899800310   -0.65489756700321
C           7.17203249846197    0.04690349854562   -0.46150336993844
C           6.64852326112138    1.18424794150239    0.19658480864865
C           5.34758108802486    1.24900881428547    0.68215646461830
S           7.83320194327570    2.45037469709188    0.32575227571751
C           9.00003630444292    1.44539445614930   -0.49222382337494
C           8.52997355147171    0.22584257851612   -0.84473721847534
Br         10.73035339550551    2.10066380041488   -0.80710382274386
H           2.63612383892929  -14.47937212583083    3.02828207397715
H           1.71704047249112  -13.55453099937939    1.73272027531357
H           4.95805449444988  -13.46718089479975    3.85193531373213
H           6.48921524168136  -11.44678855547795    3.40798343405082
H           7.52942365517816   -9.49009772134375    2.59740252733646
H           8.15581796495373   -7.33804809246574    1.33296401241561
H           7.30303431739669   -5.78836202176126   -0.54738891656334
H           8.32204631896951   -2.46428766220472   -4.71030807572825
H           8.64861401295704   -2.64316255386543   -2.97915764935647
H           7.64664583719973   -1.29811527776457   -3.57602790388047
H           6.34468769220192   -2.09790437558173   -6.15841726989566
H           5.61634500014970   -0.99181157826745   -4.99469868122110
H           4.57887531141285   -2.03533552189752   -5.98747325625153
H           0.95346017381373   -3.15227952359183   -7.02661264708440
H          -0.58582202598043   -3.19558663062573   -7.89858002157439
H           1.84381411730693   -4.96118739270725   -8.47232172817861
H           1.31364975698661   -3.58968549880908   -9.45116204717587
H           0.31108276104860   -5.04172907146793   -9.34403910191922
H          -1.04095574451249   -8.10886004164271   -3.05110370006065
H          -2.61520782469945   -7.93373961033896   -3.83044769144809
H          -1.74211343819042  -10.26422935482325   -4.02380765284214
H          -0.34924789323451   -9.66355813195433   -4.92984831108216
H          -1.97251518618727   -9.51347572710811   -5.60455946540301
H          -4.44064542662686   -6.05932982779461   -8.22288353907501
H          -2.36933278934400   -4.52842335381933   -8.56742381952264
H           1.51389054147568  -10.70457392462121   -1.05315147111523
H           1.15844960989246   -9.70490496062431    1.22314008229890
H          -0.21307546665467   -8.59625819027850    1.13439635567158
H           1.42166684655810   -7.96294985810593    1.38299186560541
H           1.16680577323506   -5.32474068398403   -1.56785370904501
H          -0.23738981153205   -6.31263252934722    0.95192490352230
H          -0.22409799722032   -3.92684122744371    1.48854097298869
H           2.21479423548573   -3.92116328694036   -0.36870194410497
H           0.96709067787114   -1.75441905720448    1.40916690876161
H           6.70851296892590   -1.95974918752901   -1.14142288426407
H           5.00306035168819    2.13441094387460    1.18948031418088
H           9.11590827623247   -0.51916205368202   -1.35090638105853
