71
 SCF done       -148.392771825630          0.000731799515
C           6.93887050883162   -6.70490345426130   -8.94584241500494
C           7.61528378319359   -6.54779609174850   -7.80052261883208
C           9.03743486080718   -6.43059333790490   -7.63264169222476
C           9.44036449104699   -6.33167596792057   -6.34831849049308
C           8.38024049578617   -6.36238588027198   -5.39439260466896
S           6.83744716578073   -6.48424086859313   -6.20764009085088
C           8.48946852917987   -6.32895984724167   -4.02486686939433
C           9.67938668225654   -6.22228480301589   -3.25737169125543
C           9.46700204417823   -6.23129036045257   -1.91733115183502
C           8.09855806297194   -6.35074659293875   -1.54763274144823
S           7.09020153988711   -6.44156562052807   -2.97267625009375
C           7.60651647497801   -6.40182368102116   -0.26660912603297
C           6.23971076199327   -6.55106442976136    0.01712306751866
O           5.35504901710151   -6.63258245442140   -1.01143548034141
C           5.52510484240061   -6.65934199692571    1.20560218307738
C           5.64858407448125   -6.71470651638225    2.65893172806775
O           6.60450726954931   -6.61078707625740    3.38443428964613
N           4.33793282204044   -6.93763082426946    3.09130182744216
C           3.38599730701971   -7.06692827789080    2.08389905655235
O           2.23888777419821   -7.37858508531666    2.24720068531944
C           4.16143666276236   -6.81789687573857    0.85549245095432
C           4.09773372376217   -6.78612520427054   -0.51869526324870
C           3.02577673156359   -6.88001100169552   -1.44911543207109
O           3.30905218832586   -7.28392459634484   -2.71115399244042
C           1.67620875602925   -6.61898293262387   -1.35522074436644
C           0.62391254501679   -6.06520245402770   -0.49239413178811
O           0.66457646257600   -5.56062517633147    0.59426120200519
N          -0.52322659097858   -6.17098531519146   -1.28478969903743
C          -0.33012708727696   -6.66654678255052   -2.56975836729993
O          -1.20588993399177   -6.84949688101825   -3.37494583675160
C           1.11839181203192   -6.90226285673874   -2.63118881664380
C           2.16741053220121   -7.29978861791840   -3.43786996363302
C           2.26110678108994   -7.64900607271753   -4.81079989584892
O           1.21587396787737   -7.39285607039053   -5.63882791144511
C           3.28698852849159   -8.20137613195785   -5.54780113497508
C           4.64498926637595   -8.76166686196827   -5.47336046891335
O           5.39122397346223   -8.92807629011631   -4.54593776256297
N           4.91967118087773   -9.10387378778888   -6.79352155186298
C           3.89819191411676   -8.83619875180740   -7.71113484237930
O           3.97448492055640   -9.03767690789769   -8.89797949107522
C           2.83576406575885   -8.27648477743178   -6.88776098500957
C           1.54170680474222   -7.76363662836516   -6.91042801811565
C           0.61039730048355   -7.58485777816321   -7.94213021223931
C          -0.60883604166507   -6.98054702721661   -7.74194570003879
C          -1.62966738903071   -6.78474468657613   -8.71126225831567
C          -2.72526002052994   -6.13937003862789   -8.23395246567132
C          -2.62501999735988   -5.78643755221288   -6.86326558906168
S          -1.09508113391616   -6.32409266772563   -6.20062716166592
C          -3.54567593176539   -5.11208886329463   -6.09482650762278
C          -4.82400418556287   -4.62935742027038   -6.50521719841986
C          -5.51008826038165   -3.98534342262908   -5.53781370008242
C          -4.82013302204434   -3.90670024612070   -4.28023549730390
S          -3.24975907884653   -4.71768013057399   -4.42158558222206
C          -5.24785449992126   -3.32303888639680   -3.15266395988974
H           7.45935777480671   -6.74698741927678   -9.88650964311016
H           5.86945684390276   -6.80923473097257   -8.97080489374009
H           9.69187660276098   -6.43603481455638   -8.48606521315440
H          10.46689728183221   -6.24697679682159   -6.03942164259039
H          10.64910937995779   -6.14201887648518   -3.71503607879064
H          10.23992149290263   -6.16222047058050   -1.17264416569221
H           8.27881179891854   -6.33990485826511    0.57415716457040
H           4.10703780259323   -7.05319327990530    4.06769284028881
H          -1.43376256705197   -5.89135323523166   -0.94908953725358
H           5.80139130157673   -9.50805039948193   -7.07400686950788
H           0.88749934837142   -7.93945525070710   -8.92193925072660
H          -1.51398303777524   -7.13181434290974   -9.72269211808506
H          -3.59394940213877   -5.90628115513117   -8.82345717822522
H          -5.18425013610495   -4.78256954258583   -7.50691453005298
H          -6.48869691003201   -3.55513093839283   -5.65645704667369
H          -6.20750366297697   -2.83813900198227   -3.11254545318524
H          -4.65256736403238   -3.31690202494204   -2.25819151018549
