83
 SCF done       -161.396752932180          0.000654092641
C          -6.10296976979778  -17.69360952543795    3.42577424049968
C          -4.97373082967620  -17.37353763103936    4.06949451886417
C          -4.65839773914001  -17.62306059857297    5.44782351569925
C          -3.41375271077389  -17.25338220970483    5.81338377587415
C          -2.63980558698809  -16.67439379559121    4.76494539152626
S          -3.59136028460215  -16.58346572760319    3.29234296903536
C          -1.32827773399387  -16.28463422872342    4.84035124732437
C          -0.45804564525089  -16.40970451926104    5.95593128044779
C           0.82234970336325  -16.04153385381376    5.71384799152842
C           1.06023693065180  -15.58450393994639    4.38715096704094
S          -0.45275629185620  -15.60467828594914    3.47247989801890
C           2.26562974655954  -15.21914415666724    3.88036682898065
N           2.47773649945794  -14.76400329887561    2.61582393289830
C           3.69683799229552  -14.55803255534676    2.06546653671713
S           5.13153694852995  -15.10951826578329    2.87530662216338
C           6.08840258464196  -14.52311105752608    1.54914298594112
N           7.46781975944375  -14.67032800020422    1.63277499257819
O           8.14467035295249  -14.25795792811684    0.70332919634481
O           7.90649222874634  -15.20521937190013    2.64225026530715
C           5.34013031426218  -13.94320777739356    0.55772383497852
C           3.96262282518073  -13.93946217239145    0.83380708900197
C           2.95613383238041  -13.31614166263987    0.01406726830189
C           3.16621498380026  -12.85957508301143   -1.23382576361195
C           2.15966584107957  -12.18115408548040   -1.99763436830207
C           2.27607322695123  -11.82898293197134   -3.28569320847023
C           3.49369344579925  -12.11787409308750   -4.11259815855805
C           1.16397136059831  -11.14100431993348   -4.04984231002759
N           0.02841861887587  -10.72278235891639   -3.27199967243493
C          -0.79591268270344  -11.62268546121789   -2.68750540807742
C          -1.75418811445577  -11.31415776609749   -1.78210406783644
C          -2.60679992213913  -12.26953369397190   -1.16631692396868
S          -4.19730244756676  -11.81311375395408   -0.67465517228588
C          -4.60037327952245  -13.42322269921887   -0.14508753394255
C          -3.51656346242019  -14.28656157206546   -0.31960111513870
C          -2.37328178232971  -13.62233678305861   -0.87175633633182
C          -1.16844363351224  -14.32885249058531   -0.97347695228125
C          -1.08620098123789  -15.65567317023956   -0.62095474592896
C           0.24877758591668  -16.31367246145514   -0.80365425071956
F           1.06877667465651  -15.59897689818345   -1.59762853394795
F           0.93847461768464  -16.44574390930839    0.36068670340605
F           0.19813812523288  -17.53175607484403   -1.35428396134696
C          -2.23950277122297  -16.34413225859266   -0.13067822024699
O          -2.30862248204815  -17.66820380262107    0.16344544348115
C          -1.34137658613551  -18.27838780355947    1.00297123661721
C          -3.41820971891107  -15.64731882032710    0.00937766406085
C          -5.89293167984866  -13.64284841789417    0.38475068819321
S          -6.51227279253159  -15.17600137445236    0.95373844142422
C          -8.05281437126546  -14.54541603123980    1.39611118030996
C          -8.11036624983972  -13.20230606921206    1.12241518811817
C          -6.89359940544031  -12.70995813133399    0.55527918183144
O          -6.97997781578316  -11.38446163018344    0.29437359952646
C          -8.23305655372620  -11.03071379459507    0.68687174445543
N          -8.61149681051501   -9.67728187681592    0.52882065044540
O          -9.73853791726992   -9.38478127069102    0.88471653920901
O          -7.80174768783925   -8.90928494307214    0.05538511306720
C          -8.96734933917684  -12.06883095179012    1.19381063575369
H          -6.90856389155532  -18.17786499762888    3.94897033879255
H          -6.24171812070084  -17.48887513878834    2.38083289197259
H          -5.37995530460052  -18.08384664670119    6.09862339657768
H          -3.01138782959305  -17.37883985092866    6.80252555546528
H          -0.80726551550320  -16.78882609282531    6.89876873816589
H           1.61996674075924  -16.08807875297957    6.43306367497340
H           3.14145845816367  -15.27941398832369    4.51027075086424
H           1.66594161640944  -14.65896213622093    2.01887796573199
H           5.79684676023839  -13.52052605020060   -0.31760060088127
H           1.97673122320258  -13.19096180166905    0.45966870538319
H           4.12621840285305  -13.00571065093147   -1.70197032651722
H           1.24832064350531  -11.95058281776670   -1.46066580240590
H           3.75105576019160  -13.17386324931497   -4.06393665591485
H           4.34768807375598  -11.54708718756414   -3.74944410404929
H           3.32563367949403  -11.85313195652297   -5.15323562942778
H           0.81365261989672  -11.83445078380019   -4.82624123312033
H           1.57118837351673  -10.26211174535126   -4.55877699288514
H           0.06689465866179   -9.80328675269127   -2.85848012917941
H          -0.68635105531607  -12.63384948925264   -3.05156350575685
H          -1.94158621193325  -10.27529269804763   -1.54586717069788
H          -0.28369517231615  -13.81989078365710   -1.31930554681590
H          -0.88793517955892  -17.55661081115388    1.68324488316952
H          -0.56604880099095  -18.78488238102510    0.42471631193707
H          -1.88511272494485  -19.02285826812562    1.58534043299963
H          -4.26828064431968  -16.18325843704321    0.39555055184295
H          -8.79402841545577  -15.19124823663400    1.81660458398702
H          -9.97167726335045  -12.00990094954636    1.55847625992628
