97
 SCF done       -182.529920929137          0.000554162189
C          -5.54468707431686   -1.21016683755735   -8.40386833815468
C          -4.94723041317593   -0.60221117220384   -7.37057066694091
C          -5.28660161062012    0.65678592136374   -6.76952778120384
C          -4.49097844005443    1.01797816309338   -5.73966245126017
C          -3.45804421904733    0.08458306092459   -5.43915294649162
S          -3.55147468104987   -1.28922836856054   -6.52548443012919
C          -2.49765471874481    0.17995008613317   -4.46381850915665
C          -2.31473944627261    1.22116344351816   -3.51661429789736
C          -1.27544561555313    1.02621098983435   -2.66797134582710
C          -0.56528905354717   -0.18734445201424   -2.88561508140779
S          -1.28109195359825   -1.06637511561358   -4.23549827893838
C           0.49972254753579   -0.64119325743170   -2.16996534714642
N           1.12591176805729   -1.82161409860804   -2.42148663584589
C           2.11747911894575   -2.36136579688174   -1.68654406524380
S           2.70169244095568   -1.63010067579776   -0.22510445093768
C           3.73209526679389   -3.01155406543191    0.03626067250259
N           4.54287665244163   -2.99347282468180    1.16382575061723
O           5.27030040126896   -3.95393411491517    1.36325809417628
O           4.46507109525414   -2.00486717993337    1.88194784033570
C           3.61919701392836   -3.97077843153166   -0.93915078408914
C           2.71613918328401   -3.60969561210106   -1.94647877636002
C           2.36684866125042   -4.33892887282915   -3.13102320522144
C           2.32118321629110   -5.67647021818042   -3.26376235123599
C           1.84483372211119   -6.37069005670805   -4.41779649099878
S           2.24143021163378   -8.06075533712638   -4.47462127347792
C           1.43352626872785   -8.28805784492101   -5.99655509954166
C           0.91739770909271   -7.08347378429212   -6.45572077559486
C           1.10065744689466   -5.99882206735734   -5.53963278477226
C           0.41022395135223   -4.72174998749983   -5.75674548551822
O           0.31621402042397   -3.83634794187282   -4.91267785679177
C          -0.23401231937133   -4.55527847575549   -7.07106548061777
C          -0.84404399206323   -3.33677354903488   -7.36313784402581
C          -1.45049341938607   -3.12459450711570   -8.58439793260673
C          -1.47586046844727   -4.12524813397142   -9.55131635528413
C          -2.10285750994903   -3.88871829387125  -10.89216214970064
C          -1.03952664108894   -3.44981915919428  -11.90191465594207
C          -0.86243220775526   -5.33694297237177   -9.26566452059933
C          -0.24106240990820   -5.56123365584116   -8.04279360577233
C           0.39155004731857   -6.87353114390272   -7.81056089476343
O           0.51063411695442   -7.68620017496383   -8.71061926711126
C           1.35555498856177   -9.63332442356381   -6.46171679674825
C           0.44817792147187  -10.14068217668203   -7.32378927913015
C           0.36623919547346  -11.51411807526762   -7.66914671978758
C          -0.60186428601892  -12.08493790684102   -8.48768733486018
C          -1.61648377425307  -11.30537116367253   -9.06739118686094
N          -2.43722512430170  -10.63596310094601   -9.50694660704132
C          -0.44659957270674  -13.48881567159673   -8.62455033114485
C           0.65066254588945  -13.94398161260095   -7.89957817772196
S           1.49612418111998  -12.70517756561255   -7.05772316846789
S           0.92674990575329  -15.65343549106677   -7.97481881581106
C          -0.46709273298456  -15.77659036586058   -9.00061042315659
C          -1.10543354022461  -14.57215573178276   -9.27833565308747
C          -2.22910186285550  -14.76988081150373  -10.11843190109510
C          -3.09114003800073  -13.77734143459223  -10.60125628927558
N          -3.82923872426161  -13.00975830410870  -11.03007113425538
C          -2.42490913079899  -16.11567996391916  -10.44878677822935
S          -1.20784394592495  -17.15130772267947   -9.72793543817678
C          -3.46948512483582  -16.60300916779549  -11.25357537042795
C          -3.74231233110765  -17.90593021016973  -11.56896975185885
C          -4.82867294385528  -18.34481572525117  -12.37642779918957
C          -4.90807039242657  -19.69043154825844  -12.52639657836061
C          -3.88823611265942  -20.40678653163445  -11.84889655428573
S          -2.81622755758318  -19.28888100107969  -11.01863681336411
C          -3.70176365094319  -21.76541267466588  -11.79283726058665
C          -4.49874175206315  -22.77254383252072  -12.41172822510482
C          -4.08144445268919  -24.03421901332746  -12.17573795743182
C          -2.91266835568961  -24.12782938236071  -11.34636227390904
S          -2.38889369019478  -22.49661072247339  -10.89496557403480
C          -2.27926830781142  -25.23742909696858  -10.94561333992766
H          -6.39095478729220   -0.76016968418796   -8.89194255373759
H          -5.20713473429284   -2.16226479703208   -8.77113097341754
H          -6.11557216317046    1.23386848961891   -7.13913090793262
H          -4.60289906734327    1.92786434323298   -5.17706407645698
H          -2.96150821682144    2.07951964890605   -3.49248954343665
H          -0.98850488727792    1.70462439189500   -1.88458255320492
H           0.88445169662720   -0.05973363879996   -1.34436348435699
H           0.77488931659071   -2.37271381023771   -3.20476214686542
H           4.19780218137674   -4.87616589543227   -0.92680521885501
H           2.05811249143824   -3.73164273827325   -3.96568687506552
H           2.65334692656829   -6.31223276171868   -2.45312424910426
H          -0.83376545787732   -2.56347288735699   -6.61013083104866
H          -1.91751831803008   -2.17234153188799   -8.78859475054027
H          -2.86732795948957   -3.11338889382891  -10.81341859216318
H          -2.57463994002664   -4.80717048054052  -11.24534174062991
H          -0.56311336615873   -2.52828823980765  -11.57443060214065
H          -1.49069329627307   -3.28087194540406  -12.87645037440492
H          -0.27401639362940   -4.21553689852885  -12.00131304545921
H          -0.86038833290497   -6.13930393418996   -9.98948069997015
H           2.05544621580532  -10.31467895777091   -5.98944033517099
H          -0.28774460054140   -9.50631394391864   -7.79447365582579
H          -4.13550435001027  -15.84859968316111  -11.65387030545594
H          -5.51282646071057  -17.63821359049741  -12.81175572509688
H          -5.66762670287848  -20.19138104769677  -13.09903224527854
H          -5.35554897666446  -22.51772529046734  -13.00970104131880
H          -4.55525182116990  -24.92159759411850  -12.55624467687603
H          -2.63236009639810  -26.20916495327675  -11.24260049045773
H          -1.40641890027667  -25.19577673189411  -10.32028491416472
