120
 SCF done       -220.967298940928          0.000753768559
C          13.44212042360548    2.22422731993128    4.25594060041050
C          13.00519842400546    1.38065378511076    3.31176453929114
C          13.77271988152243    0.42126412724092    2.56749851474012
C          13.05723689302564   -0.29643991947322    1.67616996800057
C          11.67083276986813    0.03444477510594    1.63603651995731
S          11.31388469744429    1.30235631293756    2.79146023763597
C          10.71318106165669   -0.52268309754481    0.82764964523709
C          10.89299426980906   -1.55854901272224   -0.12985308517624
C           9.75964657443853   -1.89647818052432   -0.78671664624553
C           8.60311610580507   -1.14671071518403   -0.40208662112774
S           9.03993604327205    0.00786036692986    0.84667829839260
C           7.36408488646096   -1.38268317394843   -0.90939385137291
C           6.12568404981381   -0.69872360754221   -0.69450298838531
C           5.92116233048833    0.58741399106219   -0.26366109345998
F           6.85045280479600    1.50970290005088   -0.01439502352715
S           4.26342833955889    1.07484539938034   -0.16584910238758
C           3.81457722242445   -0.50437664642117   -0.71204019897988
F           2.52262371048728   -0.80592335062161   -0.86013905349457
C           4.85626018897050   -1.33426098937709   -0.95572667348434
C           4.70482423999099   -2.72124593417975   -1.41787550315219
C           4.03286987227688   -3.68255318890057   -0.64401195772875
C           3.65278940293877   -3.37995467534098    0.75449185168383
O           4.07618115600237   -2.41840969114803    1.36221226561802
C           2.75277158816458   -4.34683775226302    1.43380831127489
C           1.52339121885423   -4.71310696437291    0.97679443979489
S           0.67390572543383   -5.70373627336103    2.09679570141394
C           1.97778918330196   -5.62529986135798    3.20392324402238
C           3.02004442724849   -4.87875420180421    2.73691207306319
C           4.26886423069449   -4.66484947302190    3.50656933169467
O           4.27580108403497   -4.63089076486447    4.71761860196413
C           5.49502719500489   -4.50030705850469    2.68506781050095
C           5.71897051067907   -5.29172406737932    1.56185155321760
C           6.85493202275609   -5.10242375709048    0.79694470369519
C           7.76659364629041   -4.11769063955585    1.13946029201041
C           7.55241390305811   -3.33395934088228    2.26165397410805
C           6.42838537817632   -3.53153452724850    3.04081948861514
C           3.86057605842069   -4.96198281752977   -1.17600898409489
C           4.40120955940000   -5.30712334666395   -2.39527479015331
C           5.14925578989041   -4.38228325945304   -3.12708703929995
C           5.24123226846393   -3.07737233517393   -2.64422624357345
C           5.85888718732734   -4.79417636486823   -4.32650626890326
C           7.02830469824637   -4.25107753076300   -4.68740837981790
C           7.81809629531628   -4.65288789786647   -5.84122890180821
C           9.23052067167765   -4.61875930229717   -5.81589328674539
C           9.99073935855813   -4.23896069468434   -4.60336393771833
O           9.59859802410130   -3.44200994968812   -3.77011554501819
C          11.28703978104354   -4.92894570590826   -4.41635688947622
C          11.50586015289663   -6.24249022119025   -4.72402505821936
S          13.04389875748337   -6.79670105866736   -4.20966205041493
C          13.41259655940524   -5.25557343036848   -3.55238440630624
C          12.40633444046982   -4.35460921134951   -3.72852029816530
C          12.50643213927045   -2.94741242679804   -3.26752818353019
O          13.01762872178354   -2.66723029985725   -2.20275400389448
C          11.96112012650871   -1.93054756092479   -4.19334481119454
C          11.95608229964345   -2.12852021624080   -5.57295453981492
C          11.41235099297735   -1.17122258356661   -6.40754438477686
C          10.86539942722830   -0.01400714063269   -5.87514601807716
C          10.88806651156963    0.19861368349087   -4.50626031031052
C          11.44423749811112   -0.74851868934120   -3.66839834426609
C           9.92991452619102   -4.96022064964235   -6.97618469088714
C           9.27497170716737   -5.34764908468929   -8.12249309283073
C           7.87597802502409   -5.43889774615324   -8.15021836481345
C           7.17554179324752   -5.07926936201210   -6.99710542765781
C           7.21909322105077   -5.88067893526645   -9.35462288120592
C           5.89719855345942   -6.14180010335764   -9.48267738226494
C           5.33003434108533   -6.57793284536833  -10.70632583539657
C           4.00854224450004   -6.87052095802451  -10.88268614705987
C           3.36790854217232   -7.31031799693614  -12.10985675489432
C           3.97153446902003   -7.52542027279214  -13.32344152631927
C           3.29134381766092   -7.95510984028812  -14.48207561973459
N           2.80292894026552   -8.30811184761206  -15.45960800304979
C           5.34316717370663   -7.35801578183467  -13.60307620380202
N           6.44262772272182   -7.24460473936697  -13.91724807807129
C           1.94919728143859   -7.49121784871165  -11.82993624880914
C           1.70753255239129   -7.18070179936226  -10.46780276800272
C           2.96987586719369   -6.78598196172127   -9.82235245752456
O           3.11357494038387   -6.46561959682607   -8.65927823779151
C           0.45871254641313   -7.25830742255440   -9.89959059948324
C          -0.60513932127447   -7.66098010873187  -10.71185999674709
C          -0.35578392240775   -7.96820240150933  -12.07126171557940
C           0.90698751426548   -7.88996331983525  -12.64637000604936
S          -1.81318469037601   -8.44242776608714  -12.88531633924732
C          -2.72399332234866   -8.23013542222689  -11.43026163659752
C          -1.97935195276544   -7.82307638574181  -10.37911344496862
H          14.47883918146278    2.23847500779883    4.54286204929479
H          12.77959469438435    2.90824742128456    4.75375262935862
H          14.82991266818009    0.31744156048711    2.73649309985705
H          13.46798182511580   -1.05180758017964    1.03008776550195
H          11.85249658728910   -2.00881496705836   -0.31195085653453
H           9.70111259183886   -2.63322003707087   -1.56876210229515
H           7.29530825387403   -2.24303444285458   -1.56121884709923
H           1.05278702542534   -4.42252552124899    0.05798878531998
H           1.92821795357655   -6.14589506138286    4.13973174076310
H           5.01746609281484   -6.07281004600720    1.30415237918134
H           7.02547724883761   -5.72011831913583   -0.07328898205143
H           8.64800499439956   -3.96572892675878    0.53440410663749
H           8.26409814419668   -2.56737921290994    2.52910262401984
H           6.24471974576009   -2.92681609679666    3.91536669182877
H           3.32403821420741   -5.70615492537290   -0.60765563443235
H           4.28214588565628   -6.31238993617220   -2.77228632074764
H           5.72817030289662   -2.32259527042222   -3.24353254783200
H           5.44322757729754   -5.63385830534364   -4.86801586802834
H           7.46805435542869   -3.48177125384437   -4.07167658761783
H          10.82716803726287   -6.92512186141436   -5.19708540143149
H          14.36307033761967   -5.07885536785722   -3.08913077200162
H          12.40182612358135   -3.01884341902658   -5.99362058937099
H          11.41111812326663   -1.32809165811504   -7.47630945698349
H          10.42787491995522    0.72450010792968   -6.53046901350574
H          10.47059575466760    1.10366177375428   -4.09117119761763
H          11.46516273240525   -0.60063408973023   -2.59982119221158
H          11.00756030681785   -4.89643879085755   -6.98243553028812
H           9.84130117163399   -5.59338588422933   -9.00862012725082
H           6.09752658946814   -5.08960131501560   -7.00458794656693
H           7.86203442953067   -6.02638268023810  -10.21512629338655
H           5.22517490633260   -6.03218592122416   -8.64630932167457
H           6.00716808238210   -6.67524974426952  -11.54489839633882
H           0.30935081084674   -7.01432869496585   -8.85913999306876
H           1.04282188516636   -8.13474076556120  -13.68637225838321
H          -3.77827699543354   -8.42674314350283  -11.45278251069363
H          -2.37430591062324   -7.63977218856530   -9.39623815795379
