81
 SCF done       -152.308413064438          0.000564380118
C          -2.55645289752711   -0.25620509721417    1.95368809790747
C          -1.32500670326241   -0.45458766294937    2.44080557044694
C          -0.63760420675173    0.31667604763780    3.43768375209717
C           0.60270845841771   -0.12734787715580    3.73335289741284
C           1.00173347293657   -1.28362744229780    3.00367546642092
S          -0.27792501408441   -1.78117790975768    1.91130842089646
C           2.19011789218335   -1.96103725658046    3.10196697383790
C           3.29726458164632   -1.67734371292993    3.94226706366195
C           4.32838907641261   -2.55201348371196    3.82879387693171
C           4.10777002468777   -3.59340926165324    2.88782989258401
S           2.51997089422202   -3.39163820864674    2.13793873172746
C           4.94458418756790   -4.62343149958061    2.58690337372680
N           4.63606174059773   -5.57962338031509    1.67031241036202
C           5.35388856451498   -6.68417940586498    1.38171790725506
S           6.82332220872147   -7.04676599456759    2.23225560079545
C           6.95966967670203   -8.52650040727312    1.32626856719031
N           8.04707844586235   -9.34594643659408    1.58180541233092
O           8.13354022462918  -10.39411130972216    0.95418045699892
O           8.85137624302771   -8.96847596802937    2.42556401604156
C           5.93850117722097   -8.71232744442286    0.43044536122529
C           4.99972860221826   -7.66488769499153    0.43224873696109
C           3.85035676476286   -7.58055740106102   -0.41306661607409
C           3.40655725250043   -8.59791309128730   -1.19878068556221
C           2.29810181524226   -8.52083666902579   -2.05915168766659
C           1.84030881506375   -9.58945103666790   -2.78795300906058
C           0.75044988702784   -9.62349868981434   -3.69256940847312
C           0.51999132307314  -10.84409430417575   -4.25100644046279
C           1.40938480593100  -11.85118639648254   -3.81428804697091
S           2.56912764075709  -11.18500505518556   -2.68312787354443
C           1.42195995031869  -13.19028424116718   -4.14272234969267
C           0.56101872324600  -13.89725474747034   -5.01293415443887
C           0.81170373489945  -15.23245269886632   -5.08709528425949
C           1.89003656400454  -15.66559062058852   -4.27429275097730
S           2.58894871460336  -14.28283574334658   -3.42579811056568
C           2.34963208626496  -16.93824714989082   -4.10794010664450
N           3.38891237121318  -17.24257263923543   -3.29038944677066
C           3.85766737706433  -18.47771177775382   -3.00188886904744
S           3.10278497853359  -19.89626231141532   -3.65857460518219
C           4.24223583572435  -20.88040117223776   -2.79078469978841
N           4.12714718993629  -22.25825878918997   -2.93547905166811
O           4.91803910782628  -22.96812050325416   -2.33530128267387
O           3.22782387024013  -22.66037364872783   -3.66299474448948
C           5.13826863204696  -20.15334382856443   -2.05053514666537
C           4.94316275178149  -18.76478769590795   -2.15545787174004
C           5.73600416778725  -17.75556552168954   -1.51195832322801
C           6.72190091769470  -17.99522833108351   -0.62366360813264
C           7.51461907575912  -16.98699691729394   -0.01330471953089
S           7.35360410512817  -15.28317917453182   -0.35270374267571
C           8.65820515532701  -14.86642871430309    0.72172585095973
C           9.14826604310103  -15.99809780360371    1.33206001599177
C           8.51472436022371  -17.19477870333862    0.91836398175854
O           8.82867529744303  -18.42490903245198    1.37583663720254
S          10.39932450520529  -16.06556679437640    2.58585089694641
C           9.02947377214164  -13.48135796074427    0.85063910424893
C          10.23225981589158  -13.01567838005522    1.18216060529033
H          -3.16045263827152    0.56112055101198    2.30586340908087
H          -2.97967829667347   -0.90007655344934    1.20472327701492
H          -1.10929716045392    1.17162749709742    3.88855753070720
H           1.25510133523764    0.32998048013517    4.45594206106784
H           3.29234964146807   -0.83395144912547    4.60869149060635
H           5.24391175285156   -2.49575998020131    4.38974223041835
H           5.89760147394207   -4.72056999821142    3.08443428801006
H           3.75197868491910   -5.46631748831800    1.18520898971525
H           5.89829470573545   -9.57631670355845   -0.20640696254820
H           3.30447085642355   -6.64577316886345   -0.42848714992620
H           3.91882918413869   -9.54984138953829   -1.16988147856760
H           1.77314877734056   -7.58000664266271   -2.15618002780534
H           0.17095694346748   -8.74105104047164   -3.89983946387843
H          -0.26590135104961  -11.04921040083843   -4.95588221260192
H          -0.22142972522805  -13.39822391319472   -5.55559314941089
H           0.25624721595135  -15.92628856576633   -5.69204684190802
H           1.88348564181735  -17.76219257910362   -4.62700614752092
H           3.84123658641580  -16.46153513327180   -2.82580892293694
H           5.90569438891244  -20.62600617950435   -1.46648300862582
H           5.53175778785199  -16.72294538650463   -1.76703735777157
H           6.97005934868070  -19.00021583541978   -0.31554360184002
H           9.51954278371734  -18.34733508574003    2.04849425712821
H          10.19874946173246  -14.82926020640050    3.03177760486802
H           8.24801271492681  -12.77175260510478    0.61432366212533
H          11.08874578173793  -13.64668851301604    1.35057652320308
H          10.39408004678483  -11.95471075850814    1.24273395829033
