75
 SCF done       -126.596141445115          0.000853073424
C          13.06119198690152   -9.14057359330561   -5.79505468889657
C          12.85212215585040   -8.52354075161568   -4.62342975625987
C          13.82464130743262   -8.16514263840740   -3.63243825672788
C          13.31206508091501   -7.54328798797719   -2.54662015374995
C          11.90280275016742   -7.36019268693223   -2.58559941109848
S          11.24671136831532   -8.01829114630421   -4.07113448864307
C          11.11066190241304   -6.75671477632102   -1.63535667579703
C          11.51027805032756   -6.17427987816148   -0.40911825178554
C          10.48303504253525   -5.64129387865155    0.30662758340369
C           9.21378381677875   -5.76855324906072   -0.30747192184003
S           9.37405507154602   -6.60615794763123   -1.83913003941698
C           8.02330278295671   -5.30040333162101    0.19709478438484
C           6.76016502636911   -5.39996007261657   -0.37802612671110
C           5.57374282596635   -4.86787504973296    0.17164790209135
N           5.50021496712424   -4.19838545773513    1.33062593019873
C           4.31596285964338   -3.76381690495729    1.69497237349042
C           4.23227637534474   -3.02340249774755    2.98861912139432
C           3.15615562075493   -3.98714341868609    0.89280367891901
C           1.81773257499645   -3.47544895481029    1.31253222469456
N           3.21272660884630   -4.64520100660809   -0.23977898062918
C           4.41813839782673   -5.10384901314127   -0.62752403001701
C           4.69482789282175   -5.83122881728453   -1.79726532887517
S           6.39606711227318   -6.19211567580276   -1.88234257259724
C           3.82073064671033   -6.27119617641756   -2.81141468420277
C           2.48591019377917   -6.01027772691989   -2.81806745911806
C           1.62873870521731   -6.45963066603410   -3.80595187684294
C           0.85215022071063   -6.85498068668063   -4.65974633553824
C          -0.01149256971371   -7.30145150336556   -5.58711322903972
C          -0.79806325232922   -7.70906807664882   -6.41951590657169
C          -1.72289721458032   -8.18941866952437   -7.37178720038969
N          -1.68082219741762   -9.49612368015525   -7.65367879268641
C          -2.56347249024760   -9.93189577916459   -8.53487894080845
C          -3.48870274760498   -9.10455245719081   -9.14578210794773
C          -3.45265851513105   -7.74449148932502   -8.79437156186185
N          -2.55916300347735   -7.30555006429820   -7.90300007567344
C          -4.32733177800810   -6.73544430963652   -9.33402353377385
C          -5.34900558453046   -6.94567897519868  -10.19742102840239
C          -6.17136727443225   -5.91069324011213  -10.69304401141927
C          -7.22162224909268   -6.10110178984366  -11.54623840981725
C          -8.07927211572988   -5.09852933851162  -12.07779978916762
C          -9.05177504714895   -5.56814782598727  -12.89813994421509
C          -9.03254755589123   -6.97698968270984  -13.07141745727570
S          -7.71617180679365   -7.67861663084708  -12.14844467210152
C          -9.88711021654175   -7.74198654537122  -13.82511458305195
C         -10.98869725302181   -7.28853896222598  -14.60707558598986
C         -11.66330944825984   -8.27070724445130  -15.24173105957430
C         -11.14667069095578   -9.59060528812483  -15.01226019448784
S          -9.74407355032564   -9.48540243098689  -13.93556825434373
C         -11.60857669537553  -10.74779698239265  -15.50347260252071
H          14.05258838286361   -9.43215412131195   -6.09308560768263
H          12.25401208250867   -9.36305133259854   -6.46841103528241
H          14.86657147141278   -8.38825316921967   -3.77972902757534
H          13.89746533761667   -7.20321107575616   -1.71008385151295
H          12.53788211577081   -6.16308104370524   -0.09292903429632
H          10.59253688346562   -5.15536339276233    1.26021795510794
H           8.04835929924902   -4.78390030694693    1.14801206859869
H           5.22120850513383   -2.97072387366088    3.43492803533758
H           3.55430012496786   -3.52981893377468    3.67436746611541
H           3.85603337861525   -2.01409015061020    2.82734142775011
H           1.07763699293499   -3.74315842976757    0.56368645467891
H           1.84228643181360   -2.39213810839254    1.42224562657403
H           1.52953100909371   -3.90445066955482    2.27120342987601
H           4.26146729452224   -6.84530793008537   -3.61639371138007
H           2.05770740459492   -5.42870536119059   -2.01214020612235
H          -2.52184720819979  -10.99248719025825   -8.75289056877470
H          -4.19548678518623   -9.49130886082732   -9.86024846314626
H          -4.11739093412968   -5.73365757108301   -8.98435509533168
H          -5.57848795189931   -7.94508130324900  -10.54437543951772
H          -5.95995992255726   -4.89764942325019  -10.37721500063421
H          -7.93935179670588   -4.06138126081428  -11.82827562474259
H          -9.78437256194233   -4.94913584968504  -13.38436874730112
H         -11.23880385669595   -6.24415068523126  -14.66761950266913
H         -12.52029976875117   -8.12052246515701  -15.87420736788106
H         -12.46498687425964  -10.76466527511657  -16.15426619394959
H         -11.14551714220936  -11.68820725878004  -15.26720160489154
