105
 SCF done       -176.749943852611          0.000987318169
C          -5.06504488403531   -3.20358214602240   -0.70354925790015
C          -4.28847551525800   -3.47975790982641    0.35193460317791
C          -4.44306753289623   -3.01607204372419    1.70239664708893
C          -3.49937561852862   -3.46024670052844    2.55960309423912
C          -2.51849771788072   -4.30581621721575    1.96692940613480
S          -2.85843943200553   -4.51974481937499    0.25757916138471
C          -1.43936115831042   -4.88842427051055    2.57857167121228
C          -1.04478457291325   -4.80396843037922    3.93968843205757
C           0.09342256800450   -5.47850367819027    4.23909748143152
C           0.68415441455340   -6.14486875359502    3.13185434499922
S          -0.30200767045308   -5.88296879993231    1.68522599211623
C           1.83345247593103   -6.87214323287283    3.10895693428211
N           2.29618047235662   -7.44422454271999    1.96533884569306
C           3.43542348822516   -8.14777293099282    1.79142553567058
S           4.55318925999595   -8.41127608349224    3.09028495366149
C           5.59682012602447   -9.26529708082872    1.99130780349133
N           6.77921131197295   -9.78009552763822    2.50754726278190
O           7.52491390071036  -10.37846950966985    1.74781579699352
O           6.98709527282428   -9.59174067899015    3.69957783809300
C           5.10323987306507   -9.33439456178989    0.71286878886509
C           3.85779539900118   -8.70396493504496    0.57139798716450
C           3.07141234797144   -8.62778831390582   -0.63303401852216
C           3.50798507230555   -8.90863280067473   -1.87189633454010
C           2.70064456673964   -8.82236179805243   -3.07060159604211
C           1.29863717704056   -8.81095070825225   -3.02381564879967
C           0.57742284962663   -8.69618405026884   -4.18710068451431
C           1.23655910445986   -8.62914894173819   -5.42719128469226
C           2.62195024600739   -8.65390394517159   -5.48972610089033
C           3.33929704456115   -8.74882638177242   -4.31422740577350
C           0.24189769331901   -8.60863649472245   -6.47765928062035
C          -1.03111888069284   -8.68171162240224   -5.88949087799448
C          -0.92228380069641   -8.66403668313955   -4.37856333529357
C          -1.53326560674116   -7.32787453988842   -3.89135240313689
C          -1.30800482608896   -6.98965491081459   -2.42299047084407
C          -1.61810026914178   -9.87007413848689   -3.73129122532588
C          -1.09537338641526  -11.19775843815912   -4.26741330767300
C          -2.15741889010100   -8.73378821207895   -6.67401098478321
C          -2.03815446034088   -8.70212819198833   -8.07185575936199
C          -0.76110153287676   -8.61289946947823   -8.64062561726382
C           0.37411858076325   -8.56889592327961   -7.85789368798314
C          -3.23720525812189   -8.78865408443582   -8.87615399858249
C          -3.31689544773585   -8.52801633312417  -10.19035644585199
N          -4.47620085664631   -8.65705289391860  -10.91295650807875
C          -4.60549065768613   -8.41791634701264  -12.23645864571409
S          -3.24191660555912   -7.90790271745482  -13.18249683580568
C          -4.22089134411271   -7.98113621470584  -14.61788721925812
N          -3.61535316557546   -7.63115186748492  -15.81905645458651
O          -4.28804522074067   -7.67515800201760  -16.83629578841854
O          -2.43788963775897   -7.30023249439171  -15.76495106488291
C          -5.50678256984910   -8.38205431630983  -14.37062293608821
C          -5.76432135354366   -8.61509417975449  -13.00664861888708
C          -7.05776962960745   -9.02641488091422  -12.53662704505189
C          -7.58562488891447   -8.80785253584023  -11.30615289860333
C          -8.85136410566498   -9.24511805333885  -10.84256731569258
C          -9.73580693230617  -10.11622090400815  -11.41843988108942
C         -10.98471871322780  -10.49166501091704  -10.84529300189929
C         -11.69365282876573  -11.39657052911087  -11.56490341097621
C         -11.05727245690341  -11.80525153230569  -12.76444672588649
S          -9.51787679539130  -10.97892448473195  -12.93401032006223
C         -11.51094820717675  -12.69494407480999  -13.70540549483716
C         -12.74320186326587  -13.40998294342899  -13.69696591985591
C         -12.92561629201490  -14.21760837665919  -14.76346656253295
C         -11.84486206650322  -14.20755610270232  -15.70878789673117
S         -10.58738503606349  -13.09783061108589  -15.13993893197723
C         -11.74897027214583  -14.89991149663941  -16.85102435321187
H          -5.92412684871492   -2.56472617867398   -0.59873147728587
H          -4.85943219201054   -3.60393102327621   -1.67946034957619
H          -5.25823640017400   -2.36600005385829    1.96660969993423
H          -3.46214310110939   -3.20918667485791    3.60498993321920
H          -1.61894054676619   -4.24223656021078    4.65412004556251
H           0.54054851335788   -5.52148921224469    5.21598030637350
H           2.42334038798476   -7.01485701105595    4.00122664886502
H           1.72596225590909   -7.29319299029339    1.13937502662284
H           5.63135724789859   -9.84197696850557   -0.07288086047433
H           2.04651334998632   -8.30472928835970   -0.50642510740107
H           4.54453094581999   -9.17639407388134   -2.02315304114586
H           0.79267271099329   -8.93227987906314   -2.07915588460916
H           3.13126300351224   -8.61024343454846   -6.44063959905554
H           4.41928920428809   -8.76621830241587   -4.34760327875941
H          -2.60681021348915   -7.36314850037855   -4.09041083235039
H          -1.11150875748662   -6.52495830350289   -4.50168581341634
H          -1.67874644026426   -7.77498530266036   -1.77018026662926
H          -1.83808573918269   -6.07347274994440   -2.17309686022789
H          -0.25276911618604   -6.82925951660789   -2.22109449467685
H          -2.69184653737487   -9.79932474576247   -3.91820791726755
H          -1.46448856680597   -9.83683960895371   -2.65193979290398
H          -1.25739734100231  -11.26995596682968   -5.34057759567411
H          -1.60844438911626  -12.02621340086083   -3.78421103517936
H          -0.02889769076273  -11.29438955267498   -4.07605547930603
H          -3.13993386881155   -8.79962640466833   -6.22779717398871
H          -0.65606370376140   -8.60266795170238   -9.71408520122494
H           1.35013045604082   -8.51369297504842   -8.31609004158171
H          -4.13718973425402   -9.08558836577682   -8.35086116976043
H          -2.47122944883010   -8.18118655312446  -10.76386724583654
H          -5.27921964955187   -9.06150403685040  -10.44562100402813
H          -6.24091168838299   -8.48286197828014  -15.14938724195147
H          -7.66754723149113   -9.50126536097227  -13.29064076434064
H          -7.04206149804536   -8.18964745655741  -10.60117950554265
H          -9.16034217581339   -8.85041517252293   -9.88225884122169
H         -11.31059072307347  -10.07209433042821   -9.90939499154726
H         -12.65074825679047  -11.78803759813717  -11.27019250077343
H         -13.45139119034883  -13.29328607639543  -12.89542136010161
H         -13.79292188910295  -14.83152241753777  -14.93069491604129
H         -12.53893482118441  -15.56193708037085  -17.15917014261555
H         -10.89031360042416  -14.81865753776967  -17.49203889793168
