79
 SCF done       -138.291101368074          0.000861321626
C          10.42050738243824   -3.25546964417568   -2.03793392558284
C          10.07831264169520   -4.07226055884814   -1.03383083665932
C          10.45239936604303   -3.97049969128456    0.34880255003878
C           9.95827789298864   -4.94858562631210    1.13669094697988
C           9.15384451941586   -5.90493785971858    0.45195376891817
S           9.05063563443309   -5.49816170633622   -1.25216341164079
C           8.53232416248151   -7.00214268310771    0.98847886105369
C           8.54450549839500   -7.44287421065333    2.33797591160869
C           7.83875742103578   -8.57757876450114    2.56553715721712
C           7.21495573781371   -9.11893857853644    1.40771422495870
S           7.57159549696860   -8.09872629597586    0.00808876474717
C           6.45817048090829  -10.24550973004850    1.33929064699620
N           5.89761608615859  -10.69976445828399    0.18477324495731
C           5.16131935979447  -11.82345311970244    0.04188904038915
S           4.86346635247768  -12.86908156807349    1.39573055597599
C           3.97259752767232  -13.93700391501531    0.35315080255984
N           3.41701933768963  -15.07525189711574    0.92477257297975
O           2.79029093140642  -15.83234882008647    0.20021631872518
O           3.59863799202083  -15.23373274047234    2.12482225029564
C           3.91813199264422  -13.50504238416463   -0.94670533634747
C           4.59081839011993  -12.28950854927874   -1.15503144878856
C           4.67721438519986  -11.58898444626058   -2.41017228595066
C           4.31338249822279  -12.10080616248673   -3.60090158113874
C           4.37989685772815  -11.35427003600142   -4.82292545857465
C           4.11507116167271  -11.80788044899394   -6.05883096020776
C           3.70839205788395  -13.20275661568924   -6.40629042040153
C           4.17993624831622  -10.86546713144333   -7.23959757229366
N           2.86666945256414  -10.61094409956084   -7.79406082674501
C           2.30620674443639  -11.45069074738428   -8.69883554393685
C           0.98373113218471  -11.53753618304565   -8.95703730523128
C           0.41239919905580  -12.41409404514537   -9.93633109996348
C           0.97151831131075  -13.00925034750493  -11.04861106691055
C           2.26885457557006  -12.62361110216888  -11.63362958496979
O           3.07000199696447  -13.39151452137002  -12.09825796612705
O           2.52016608182386  -11.29229254175378  -11.66488460961756
C           0.10965458854877  -13.99223268398575  -11.65872461031852
C          -1.10213109534225  -14.05500349331880  -11.01653833782214
S          -1.20753874633148  -13.00468167949979   -9.66851084689842
C           0.51098099191705  -14.75882481967805  -12.79566637318022
C          -0.17381397150483  -15.72897297930448  -13.45565175351485
C           0.34084200938205  -16.46267951068331  -14.56847116637263
C          -0.49542901340247  -17.40194410137059  -15.06753154770114
C          -1.74353834799808  -17.48589197260238  -14.39215857433243
S          -1.80004541838512  -16.30443491258647  -13.09426272100982
C          -2.78776773265189  -18.33327548491287  -14.65081325116708
C          -2.86074642494881  -19.33553053425627  -15.66130385120402
C          -4.01873206321347  -20.02845655976924  -15.67760927880118
C          -4.96652506572432  -19.62854289385159  -14.67535166108529
S          -4.27393926211684  -18.31111633885335  -13.71562240846818
C          -6.18740289003016  -20.13281599480098  -14.45547768890357
H          11.04773444639356   -2.40013520564894   -1.85894853799221
H          10.08446003706583   -3.42307124626621   -3.04469381747832
H          11.07881200982676   -3.16440166672621    0.68737216253368
H          10.13974574321098   -5.02586621886412    2.19401309517015
H           9.07965536517868   -6.90274120580598    3.09772430829351
H           7.73926580140163   -9.05603004960549    3.52317836699264
H           6.27506881493843  -10.83385491129920    2.22570259129895
H           6.06882924997950  -10.14528992777743   -0.64692862197558
H           3.38952755266014  -14.05757302277657   -1.70087399216934
H           5.05880888910813  -10.57565658439498   -2.37949920710391
H           3.95281003983016  -13.11566791144419   -3.65050054742652
H           4.68263132871569  -10.31884201677918   -4.71381907726039
H           3.67279451807856  -13.85277619487371   -5.53976614842976
H           4.41372090968699  -13.62372573293035   -7.12286180997855
H           2.72556663900367  -13.20493539149805   -6.87961753597901
H           4.79627091027217  -11.29679334640670   -8.03352835441639
H           4.61578404685255   -9.90820809074047   -6.94096604975836
H           2.22666869330970  -10.13014355564384   -7.17666666032552
H           3.01655295832555  -12.04060363615048   -9.26220573192266
H           0.28099634654991  -11.00330714947335   -8.33211094914009
H           1.80750359854737  -10.77998194542852  -11.26069426866536
H          -1.94875034445098  -14.66463447828888  -11.25389966712468
H           1.51167561409790  -14.55901540563070  -13.15367579755357
H           1.32662982101918  -16.25792943852497  -14.94751913071882
H          -0.26107192629867  -18.04236579222011  -15.89901074264444
H          -2.04278059633338  -19.50426077500923  -16.33934166862229
H          -4.25259973751287  -20.82168895698808  -16.36559161354397
H          -6.56799304138949  -20.93424248313993  -15.06377534584971
H          -6.82152015376932  -19.75864246975434  -13.67296755493690
