110
 SCF done       -162.890914480467          0.000908585766
C          14.66193402132811    4.34762599074428   -9.14896793876721
C          14.77633161354609    3.32136193323799   -8.29709512552690
C          15.89732204876912    2.99403932282385   -7.46044810099393
C          15.72622452224056    1.89299231577970   -6.69977792461114
C          14.46250964540497    1.25354964086956   -6.86530881234938
S          13.49446649122949    2.12567187190251   -8.04259237161907
C          14.00931728713257    0.12630026896435   -6.23540457065540
C          14.68013771879569   -0.66043282077261   -5.25756569594256
C          13.96725294604123   -1.71888104029749   -4.81260152467197
C          12.66932955068913   -1.85656972514371   -5.40361626951604
S          12.42109852097429   -0.54979329996201   -6.56718563157793
C          11.78558652084248   -2.85183401442230   -5.15279336795056
C          10.49270424092219   -3.06242802396333   -5.79061784439203
C          10.28364496545050   -4.33041225574236   -6.34116451688333
C           9.14082679010883   -4.64693832826786   -7.05216802708891
C           8.97957741403595   -6.00896743389475   -7.68107482994262
N           9.52009985816327   -6.07996190598707   -9.03345741527218
C           8.18470943253147   -3.65526291743422   -7.23487035366502
C           8.34535087735087   -2.42061817773195   -6.63889495385469
C           9.47082378125425   -2.10803053454033   -5.88532921684412
C           9.48589004079818   -0.79377181951630   -5.13951604780704
N          10.00617140681404   -0.92279351938996   -3.79504453588313
C           9.61029438507605   -0.16749589303355   -2.72590805926442
C           8.41173851519566    0.39244859641025   -2.49617183242661
C           8.13288000785962    1.19886584850364   -1.31422822885891
C           9.12132079068395    2.04639811888484   -0.81018520278196
C           8.90902085917980    2.85270488655323    0.29544925737205
C           9.97751443041900    3.81398474051410    0.75602030999362
N           9.91173486658442    5.10587977097799    0.07906860469692
C           7.66237796212513    2.83260584286173    0.90839315922461
C           6.67114062009612    1.99698803925813    0.42904751394659
C           6.88422349283803    1.17831126006940   -0.66940067533759
C           5.81102352128279    0.21411038955586   -1.09317060430234
N           6.22845543720465   -1.13857248638407   -0.77823675963550
C           5.59116643637580   -2.23316556605059   -1.29277492080550
C           4.38598427545258   -2.26933031515393   -1.88107150232066
C           3.85599581898607   -3.50004994768485   -2.45442119643343
C           4.10142018231700   -4.72724680108084   -1.83953849160611
C           3.69749144675642   -5.92586259558526   -2.40102400177990
C           4.06546086487740   -7.22648254745202   -1.73973048938022
N           5.46270291175771   -7.19280725934926   -1.32109792934259
C           2.98296519722170   -5.90377323757703   -3.59047050320201
C           2.72572456060198   -4.69838311847425   -4.21396261304114
C           3.16998284958036   -3.49678079006705   -3.67996821719994
C           2.96007557326321   -2.23681435483480   -4.48383417906960
N           4.14642041256746   -1.40801296565769   -4.65433210522587
C           5.42368519277700   -1.82110540039300   -4.46064979035189
C           5.89985897091952   -3.08876196742341   -4.55654286016191
C           7.18772673279936   -3.43717034108070   -4.10944647865195
C           7.66172572149518   -4.71687684989231   -4.07530542784247
C           8.90959939783309   -5.16580180918051   -3.57920909338674
C           9.09351643134077   -6.51038187876834   -3.64414301435316
C           7.99329226310838   -7.21675580998607   -4.19339081446746
S           6.72505661572732   -6.09345962207322   -4.65284312315274
C           7.84780291178938   -8.57361084478875   -4.34527086568623
C           8.78246715419303   -9.59502357667609   -4.03301980623639
C           8.34612567810818  -10.85166468803049   -4.27889018086377
C           7.01643872891633  -10.92647254403029   -4.81047697747161
S           6.36611443390669   -9.28744126458790   -4.97365156759746
C           6.32580204635610  -12.02568179934104   -5.14551448224204
H          15.46666057701479    5.05061078098604   -9.27283431843791
H          13.77260858200180    4.50291875864647   -9.73179540085478
H          16.78271987746212    3.60482613041981   -7.47047236937497
H          16.46287913517067    1.50541509558835   -6.01831914430591
H          15.66985692470140   -0.41126424530167   -4.91877134947403
H          14.31277455280115   -2.42344619576014   -4.07606162877701
H          12.12632980656255   -3.65008414392624   -4.50321990117794
H          11.05370831601186   -5.08020907141446   -6.21780313066338
H           7.92116198119316   -6.27511303721340   -7.73227705275233
H           9.49415201217928   -6.76308689577077   -7.07956172213239
H           9.04833771785800   -5.40724052514479   -9.62917416908291
H          10.50619779729100   -5.83876882910685   -9.02449215468073
H           7.29014078656688   -3.86803753423504   -7.80125070712983
H           7.56237973886788   -1.68320510526820   -6.74055387841646
H           8.46353953806802   -0.41965005008253   -5.08071048334825
H          10.07348809629942   -0.05327317044455   -5.70722310142536
H          10.96665321844339   -1.22929307979686   -3.77137327874287
H          10.36147248631869   -0.10893488179316   -1.94625982676364
H           7.60577327396000    0.27470239416888   -3.20519251406782
H          10.07875784147314    2.08498378612460   -1.31140557700549
H          10.97035320527455    3.39698868326948    0.56650805284893
H           9.87999590296057    4.00206465109915    1.82838936792864
H           9.00502350713123    5.53249371282078    0.24326887223087
H          10.00432597308664    4.97219036650856   -0.92328963223532
H           7.47280800421281    3.46321730987916    1.76513373967131
H           5.71066858955303    1.97248786236892    0.92395072804513
H           5.60471498121123    0.31305238814288   -2.17115618724957
H           4.88004867833310    0.42990122492902   -0.55718650664917
H           7.22471677988109   -1.23657214488660   -0.65669237629538
H           6.15777945987161   -3.14871204467848   -1.19464202642280
H           3.81094819152410   -1.36515933501450   -2.01713527770969
H           4.63581451771848   -4.75584703492316   -0.90313857379227
H           3.83997327116465   -8.05605855582195   -2.43012106034942
H           3.45811812605623   -7.36647599960830   -0.83694580967429
H           6.04843545472538   -7.01355192077929   -2.13091442335044
H           5.73220281320858   -8.09433837082687   -0.94117928496275
H           2.65087122605865   -6.82663630559063   -4.04247673921987
H           2.19533156658637   -4.69312503018400   -5.15666643207254
H           2.19757951563507   -1.61539901694211   -3.99917583590521
H           2.57569471480882   -2.51396317165433   -5.47421415381551
H           3.98527426820026   -0.42149575287280   -4.53090056606141
H           6.11725016149211   -1.02752645126143   -4.20948406762528
H           5.26178540233007   -3.88945868427676   -4.89424170030068
H           7.82473171755762   -2.66070181169816   -3.70825051394760
H           9.62504580212337   -4.46822761620582   -3.17903909735229
H           9.97584648776939   -7.02184935908304   -3.30184175215544
H           9.75395753637464   -9.35958118702128   -3.63402198522510
H           8.91697371130814  -11.74665998164871   -4.10395878819697
H           6.75994853724362  -13.00293859187533   -5.02952502189164
H           5.32768224455265  -11.96850475774985   -5.53884301505235
