84
 SCF done       -152.416880071057          0.000165438538
C          -3.41790427037463   -9.13111565300788    6.10661443351605
C          -2.12343707177117   -8.97034745331520    5.80278915829503
C          -1.04837419564241   -8.61818680629158    6.68695546260923
C           0.16043407319174   -8.52659679862338    6.09210130911399
C           0.14401751725527   -8.80183848293108    4.69416243319865
S          -1.48115674884518   -9.18167029705739    4.16481197873380
C           1.21928519162094   -8.79954080074369    3.83870037876409
C           2.56412897274073   -8.48119771704377    4.14901474429672
C           3.42037309589820   -8.59534002069547    3.10058883012722
C           2.81517177268623   -9.03212533644334    1.89324581990110
S           1.08695484537316   -9.24336834430017    2.14614178518110
C           3.37437280979475   -9.35494155949484    0.68312927597021
C           4.72730017905098   -9.28707128078176    0.31301634303675
C           5.31314319468815   -9.86699887660138   -0.80180145806037
S           4.65255919964749  -10.80129872436721   -2.10330852772931
C           6.25902106301674  -10.98856835312168   -2.79433055215767
C           6.41252191164134  -11.76125298643743   -4.05256743183072
C           7.22371423737664  -10.38214162975178   -2.06591390189712
C           6.71839513484351   -9.72922677965563   -0.90470359707380
C           7.26344383440188   -8.98448707137510    0.13773215258423
S           5.98181902240272   -8.47638980324094    1.21956144008859
C           8.62835495339703   -8.68651692216181    0.38803389962552
S           9.87447618139489   -9.64435231321879   -0.36877930903395
C          11.12224113537957   -8.71369914432134    0.35927889645409
C          10.62615318496840   -7.72643444677722    1.14360187359683
C           9.21320996198678   -7.70599614196473    1.17776295946189
N           8.51188256364724   -6.69901702858436    1.87411771026012
C           8.50740589576139   -5.37957551413965    1.27117096916133
C           7.44493921573363   -5.26246544627978    0.18218495348055
C           7.79748628412842   -7.00609193441393    2.96328831542035
C           6.87085440972984   -6.23476877476954    3.65484567799758
S           6.19937479305217   -4.63763752064653    3.45791125032827
C           5.12507610512749   -4.89866089643242    4.80929467303601
C           4.18815177087258   -3.82145223513649    5.21329103660927
C           5.27587895206396   -6.12689565411117    5.36881324382090
C           6.26492933525445   -6.90940449246089    4.72598972324481
C           6.71777945104552   -8.23654227309207    4.89280470319974
S           7.98238326739505   -8.58405147332368    3.70580770710279
C           6.14506361379292   -9.11048264735187    5.78929569500452
C           6.42489680045383  -10.44898288831112    6.02648295701653
C           5.70909076463523  -11.31565138731602    6.91636827783702
C           4.54654384595422  -11.03544838549085    7.60470947437289
C           3.90029141767334  -11.93987825889487    8.46737967806258
N           3.32748694058698  -12.62693471836529    9.18900262398488
C           3.82942053164406   -9.83145614759262    7.52491972814878
N           3.17824126707882   -8.88158344179212    7.49864768368561
C           6.40844196194052  -12.60084742765594    6.93040306000362
C           7.50383776766928  -12.52560294872153    6.03416701769139
C           7.53277267394878  -11.17483588460936    5.43629061493792
O           8.34763689870047  -10.76294525595931    4.61889255801552
C           8.35480403157041  -13.57831137260723    5.81431557497736
C           8.11602860173849  -14.76693498873549    6.51605437496855
C           7.02426057155020  -14.83148951631258    7.40995468366721
C           6.15990787464766  -13.76357857631018    7.63054069585011
S           6.91401364286956  -16.38934306808755    8.17324924089429
C           8.31794351845568  -16.92486676620704    7.28953748344713
C           8.84377432368728  -15.98779038734442    6.46631391668020
Br          8.95777122591995  -18.67157811287526    7.53678472358782
H          -3.76553593821598   -8.99339528584424    7.11532518887983
H          -4.14487083206837   -9.40207577700948    5.36305829777068
H          -1.23203045892615   -8.45510914419937    7.73399645852793
H           1.07591445385477   -8.29750505250485    6.60780836592201
H           2.85800581042575   -8.19132851035816    5.14131152703670
H           4.47476051366955   -8.40379395901887    3.17276116057405
H           2.71984850006648   -9.76641872560881   -0.07527124488142
H           5.81252284807828  -11.31970647328848   -4.84788450697868
H           6.07305658850413  -12.78743187077834   -3.91283801446243
H           7.45539406187322  -11.77335051322130   -4.35953972831786
H           8.26178032955145  -10.39375930776006   -2.34281174695660
H          12.14541244771136   -8.96162054074341    0.16328535770268
H          11.23206576213814   -7.03346711950633    1.69924946552245
H           9.49807882822299   -5.21085687267552    0.83975790973563
H           8.33513517796834   -4.63521667951748    2.05063982495462
H           6.45608889879891   -5.43836447869566    0.59740615240302
H           7.62700665429909   -5.99224013133951   -0.60348953838689
H           7.47035284183905   -4.26724876291404   -0.25168200173266
H           4.73473561165019   -2.91679912524686    5.47925615448644
H           3.59781506765524   -4.14219061839765    6.06781371298910
H           3.51541007430365   -3.57315862476748    4.39254949916263
H           4.69670318988528   -6.45817569401250    6.21179070067625
H           5.35459847297980   -8.67127303627662    6.38236796058065
H           9.17935289668132  -13.49280346297340    5.12400909237604
H           5.34121395914703  -13.86269188154827    8.32362174245747
H           9.70857473540897  -16.14832918416162    5.84862978668906
