68
 SCF done       -123.610603128222          0.000394249556
C          13.79852714756348   -4.10611527814518   -5.75265991555696
C          13.50360059751577   -4.65652962689704   -4.56772913974441
C          14.39060062722563   -4.89572860875675   -3.46443499698609
C          13.80494040780847   -5.46653163970135   -2.39001182352242
C          12.41343004998385   -5.72729169141089   -2.54797131656916
S          11.87824515295152   -5.21388914329868   -4.13626166489456
C          11.56133126768020   -6.28890056047040   -1.63030297291627
C          11.86308708470496   -6.73915889945866   -0.31952046124646
C          10.79584759878763   -7.24148064889902    0.35055085450877
C           9.57473909855600   -7.22374675224504   -0.37939612416431
S           9.85617844303199   -6.53902992684556   -1.97134900014190
C           8.36918548861419   -7.66208482915378    0.09137969791872
C           7.12801227170641   -7.65685213112081   -0.57760349181557
O           6.04555607388635   -8.12023738205546    0.12865136153498
C           4.98104945637992   -8.01080430887929   -0.68166006192388
C           3.61872249130000   -8.28011944411483   -0.57076515584232
C           2.96117634381461   -7.95136520757589   -1.73997386607117
S           4.02759090343510   -7.31566214678584   -2.98283670385058
C           5.37235788273124   -7.48030064217561   -1.92178015653274
C           6.74895890003213   -7.25372057347574   -1.85558185919216
C           1.56304352020524   -8.05900949918320   -1.96548738084838
S           0.83035734348273   -7.57666247490356   -3.50514520705120
C          -0.69177685257975   -7.98180086822493   -2.83975495490563
C          -0.56820124963997   -8.44416558450078   -1.54724057827980
N           0.71107745485990   -8.47786963110614   -1.09214395019775
C          -1.66788121767708   -8.83792186883819   -0.71365124007756
C          -1.50688205758687   -9.33724784404304    0.52785480870532
C          -2.58386190100153   -9.68933470830609    1.38905752999679
O          -3.87478722424134   -9.45865623726600    0.99476405956611
C          -4.66133153315519   -9.85552982291227    2.00799476065672
C          -6.03432435866097   -9.86301067358098    2.23917086959765
C          -6.32616850151666  -10.37960831382785    3.49205948637137
S          -4.86698481239141  -10.86572681936925    4.37256842698927
C          -3.87882488532573  -10.35592248503468    3.06081964668642
C          -2.54355914211106  -10.24490368323269    2.65877545778876
C          -7.55941612107641  -10.55358191672695    4.14805870683823
C          -8.80677951924252  -10.18901216739011    3.71925116328781
C         -10.00889887456798  -10.38199734192700    4.45437249828505
C         -11.12836914759128   -9.91679534975829    3.84444258113203
C         -10.89079583438611   -9.32371061166990    2.57859435411445
S          -9.17830161695730   -9.39122758482172    2.19896224397903
C         -11.80287446937071   -8.75819434260598    1.72280472499001
C         -13.20882866966002   -8.63828117055239    1.91070142652423
C         -13.85778410395439   -8.02867122148118    0.89490815182609
C         -13.01107568253421   -7.61422947936995   -0.18754884418743
S         -11.33696017350891   -8.05643113986562    0.18394847721163
C         -13.37064238239101   -6.99074154177295   -1.31750250058476
H          14.80001890833587   -3.78185437108520   -5.97371575958709
H          13.05344368877373   -3.97346214026508   -6.51534709565916
H          15.42982870680183   -4.62587238223924   -3.52911825911478
H          14.31956938866310   -5.71357941983737   -1.47829191502800
H          12.85697881440854   -6.67609996639632    0.08575174063398
H          10.83323746473939   -7.62705080124579    1.35420384150059
H           8.34209260643659   -8.05405973761003    1.09905928783468
H           3.11431693972188   -8.67978428094253    0.28725701124770
H           7.38415830469117   -6.85558992091695   -2.61772759157945
H          -1.58842921659320   -7.86545216470490   -3.41385248850842
H          -2.65803854541927   -8.70623606538946   -1.12490812400063
H          -0.51150689989116   -9.47986478639211    0.92024887514385
H          -6.77201321325044   -9.51812087784438    1.54148551067843
H          -1.66371274568093  -10.52318678860139    3.20050579307845
H          -7.50886690267504  -11.02047349739847    5.12358794387612
H          -9.99537761979388  -10.85946384724959    5.41855482685126
H         -12.11634183633988   -9.97827934864197    4.26430138980886
H         -13.68709783011437   -9.01137113203921    2.79911479452155
H         -14.91783212074138   -7.84916738882296    0.86039563718684
H         -14.40022848049731   -6.73967084389824   -1.50205579520128
H         -12.65103468667859   -6.72207641468516   -2.06879754513179
