91
 SCF done       -180.037636275232          0.000790800792
C           5.41018317747206  -13.41967485749510   -4.81887141390295
C           5.89318436101173  -12.17370915704984   -4.90849374829500
C           6.88973810192456  -11.66637039137725   -5.80931645810835
C           7.19676676507691  -10.36328621688343   -5.62583065444848
C           6.47108050675464   -9.73800748156214   -4.57208169317044
S           5.35852286086120  -10.86667963142521   -3.84778302291155
C           6.58193680640432   -8.44399275498215   -4.11697178147055
C           7.38673013624578   -7.39479934073211   -4.61900126136596
C           7.23720907604242   -6.21880802499149   -3.95128113882057
C           6.31295831435410   -6.27353951657930   -2.87767777811827
S           5.64715900753373   -7.88462022187161   -2.74342199426908
C           5.93077043323442   -5.23523253129092   -2.06695052685696
C           5.02893891434958   -5.33234952412539   -0.99946222061549
O           4.54469257371275   -6.52409761222015   -0.55314001782038
C           3.67572755227431   -6.28506497342797    0.46539662774890
C           3.60985555250276   -4.90487520393875    0.68859269098763
C           4.47170207862751   -4.30021085410863   -0.23547317824945
O           4.73495232911765   -2.99261887318952   -0.39212201547287
S           2.65844670549548   -3.97834069854450    1.84682109862709
C           3.04330889950628   -7.35608449568361    1.13179549806725
S           1.70398312235443   -7.07046870346264    2.20763804399022
C           1.55619459408742   -8.77243782978782    2.59079767053983
C           2.50432962346373   -9.50402726393229    1.87607648367443
C           3.32165673635282   -8.72109981981523    1.05705408656684
C           4.36752836831394   -9.29711168226793    0.15414675210536
C           4.60515021427236  -10.78064705853044    0.44739741814100
N           5.38827915975892  -11.35335559447374   -0.68121284114804
O           6.47598662051709  -10.88268784991049   -0.88037889251902
O           4.86613499437456  -12.22845380449939   -1.32892289714818
C           3.27414411399529  -11.49704570008542    0.60108544783973
N           3.45948435870534  -12.96804331601091    0.76445477406969
O           2.55023774057558  -13.66492435223548    0.40128082530914
O           4.47103540837558  -13.33464910774330    1.30515191484529
C           2.59409252457563  -10.99726187607845    1.87827757888230
C           0.51311670307000   -9.14493727161691    3.45746002491270
C           0.42595395490495  -10.19943615363765    4.33635362997521
C          -0.73539480005172  -10.54710347731856    5.06922621525278
C          -0.55808407815539  -11.56332765968346    5.96136104835958
C           0.76291296910909  -12.05188630119277    6.01035585508100
S           1.76442811482761  -11.20932140458852    4.85713994789491
C           1.29567396529134  -13.02175665089337    6.84627250546012
C           0.62945316508532  -13.80876562508560    7.80513923725540
C           1.45929737850390  -14.64774716359632    8.49470398943025
C           2.81704960405448  -14.54928137338219    8.12375914402585
S           3.00672785943041  -13.37983558094376    6.83870450869390
C           3.88394604074043  -15.22756636073982    8.68747738601999
C           5.20058814320302  -15.00453470288106    8.30785548453475
C           6.30574426992901  -15.62092600487602    8.86572063415417
C           7.68282789195655  -15.37444872955381    8.53223639661809
C           8.17257589911480  -14.45551322216898    7.63059087382312
C           9.54181296199151  -14.26532979433767    7.36244695234027
N          10.64041663525134  -14.05623430595318    7.09764207047935
C           7.40358307091795  -13.55900500138584    6.86344137905504
N           6.86655074070016  -12.78215121709441    6.20756890052005
C           8.50520131156008  -16.26223060940053    9.35400576199440
C           7.65251549425582  -17.02418048485827   10.18856584163066
C           6.24689779207370  -16.65091755485903    9.91737593573912
O           5.26463722334268  -17.11423917446416   10.46600192286967
C           8.12549079497490  -17.94466015065483   11.08980383351696
C           9.51109908867475  -18.12390678847704   11.17340658177481
C          10.35481547356576  -17.36107227522149   10.33458235519640
C           9.87463689419660  -16.42904440563641    9.42118693466449
S          12.03095282957787  -17.73702766534279   10.60180455199478
C          11.57891980938422  -18.89787286684112   11.82165978865005
C          10.24401659761115  -19.00121377693102   12.01977489566067
Br         12.91370247920525  -19.86248804112679   12.72133516760282
H           5.75931266800798  -14.19506787109554   -5.47821363466554
H           4.67837469803927  -13.68299701861915   -4.07705760647609
H           7.33927378701993  -12.30793419142312   -6.54639287298152
H           7.92916095179517   -9.82338076216803   -6.19940631952557
H           8.04260393489103   -7.53454641069004   -5.45944094026940
H           7.75883001752854   -5.30896040961709   -4.18947178432737
H           6.31945469535805   -4.24683110825919   -2.25843039615462
H           4.24729303202894   -2.49005655292223    0.27606272650654
H           2.79489810452116   -4.81439458963617    2.87181568701183
H           5.30257724184176   -8.74339342770318    0.25045754626987
H           4.03896750066286   -9.17827158737179   -0.88362136797658
H           5.21519125865164  -10.90506208208270    1.34906090149309
H           2.63334313785171  -11.34959118055273   -0.27330361019329
H           3.18445358685399  -11.33140063338124    2.73822982866760
H           1.59594708475779  -11.43124292529396    1.96790448180460
H          -0.32612384888703   -8.45915492443769    3.47959966214802
H          -1.66994860793544  -10.04051023612718    4.90484879349619
H          -1.33398013560359  -11.95699859583058    6.59240661960634
H          -0.43236314506712  -13.74390863074292    7.96155829099707
H           1.13800080515855  -15.32521326920267    9.26559942327465
H           3.67516619693616  -15.93950698496630    9.47268633382341
H           5.36473660286571  -14.27860897053021    7.52067454678786
H           7.44933669273577  -18.50890573088386   11.71287487585605
H          10.56073679772825  -15.87300548946263    8.80467120517397
H           9.79201893152890  -19.66644830265821   12.73271447915598
