73
 SCF done       -144.264028845935          0.000371119011
C          11.24659069929221   -6.15243754607290    7.12178489064360
C          11.31469111987026   -5.87268278845498    5.81337584662510
C          12.37285489433518   -5.20031302803606    5.11355647794563
C          12.16870885482779   -5.07413514145525    3.78454714781785
C          10.94179734415324   -5.63370985269523    3.32460153392084
S          10.04513566231907   -6.31847298985339    4.66044676678384
C          10.48088426911221   -5.68858548210463    2.03008664929197
C          11.11856425703889   -5.22461133024480    0.85257282981880
C          10.42692497423051   -5.49144865055233   -0.28561447599738
C           9.20517312680464   -6.18600850150067   -0.07725924572253
S           8.94358381632344   -6.44154418439401    1.63358075532311
C           8.37554477529485   -6.66128583919878   -1.06181752840910
C           7.20982965640247   -7.41464966092977   -0.86969758605890
S           6.46981423725806   -7.69342998432736    0.68975002225934
C           5.25897876427211   -8.75403901656133    0.00052674652340
C           5.42176905275997   -8.84246972546217   -1.37450015995835
C           6.49042220361853   -8.07982838170669   -1.86037459418573
S           6.76365129496749   -8.12792762913569   -3.57753239608045
C           5.43515477607147   -9.21340384324734   -3.94344157353902
S           5.09000974351318   -9.69829656803685   -5.45626850605822
S           4.50416789471210   -9.74240976670369   -2.54628515817160
C           4.33782302357937   -9.42493872451542    0.82502761945248
S           3.37108708632684  -10.77844856302750    0.24396041964666
C           4.07674914124009   -9.22154909007714    2.16258718904996
C           4.51116665419738   -8.30361259816916    3.21470970639296
O           5.31579533304863   -7.40130376605948    3.18169955564838
N           3.79386372964854   -8.69155743720252    4.34350556959172
C           3.88343661051622   -8.00012263441602    5.61089019261125
C           2.86867078664907   -6.86463862740829    5.69150642534251
C           2.95426460791153   -9.77805029096667    4.12589707859628
O           2.24710917639814  -10.28954670591229    4.96449722011866
C           3.14059349993547  -10.11977393484240    2.71634771913235
C           2.66856599274769  -11.06637882646922    1.83377161981622
C           1.84370414071286  -12.17666694262050    2.09569861912573
S           1.21566803699233  -12.49094167161825    3.69623278513736
C           0.55817916202265  -14.04139460608532    3.20816490428432
C           0.78699821523975  -14.25244248417643    1.85476041585610
C           1.49307797528321  -13.20550759674816    1.23602461444212
S           1.79945335305391  -13.35098331602431   -0.46794581519457
C           0.92492617436009  -14.86328410497506   -0.67274967970926
S           0.77688713627207  -15.59867188126601   -2.11458348991506
S           0.22822187836456  -15.51803094247395    0.79558646021782
C          -0.05723201075772  -14.84465766796083    4.19146121501197
C          -0.09265280051447  -16.21115205661494    4.25627246394176
C          -0.72242134055610  -16.96482693687241    5.28705342288759
C          -0.50330679047626  -18.30202909591503    5.22105005102646
C           0.32350737769539  -18.69601015230562    4.13855213622752
S           0.77649020249415  -17.29275307943910    3.18476410909107
C           0.78085399968242  -19.95325650750862    3.82958972685298
C           0.53232270709378  -21.16362151997669    4.54064791603402
C           1.14663299030525  -22.24786238879403    4.02185247938285
C           1.93382177724743  -21.98014165192400    2.85072162171051
S           1.82726614598343  -20.25541133202179    2.46032039838585
C           2.65633724922625  -22.84979291830231    2.13300898292869
H          12.04207523366365   -5.86777006318256    7.78766017825662
H          10.40393264042723   -6.66692209800588    7.54590195402295
H          13.24036133949416   -4.84525237106379    5.64092157088932
H          12.85622134455069   -4.60096592914039    3.10632665830178
H          12.06936881321131   -4.72345035899365    0.87913645991089
H          10.75538289387225   -5.22912744198039   -1.27574667310144
H           8.66837195316276   -6.49115399511848   -2.09005652615599
H           4.90014275394242   -7.60915012563174    5.69769933867981
H           3.69625477491939   -8.73475993376045    6.39773138555749
H           3.05079413338444   -6.14272833696921    4.89867343090300
H           2.95371965547913   -6.36070690770994    6.65009891743918
H           1.85904452314371   -7.25617369001537    5.58962578254446
H          -0.46025491112665  -14.30910977027652    5.04120662772341
H          -1.31371458855466  -16.47916805252601    6.04298752323493
H          -0.90261637124776  -19.01596910504740    5.91871939813803
H          -0.09308091961168  -21.17934638621726    5.41543080645207
H           1.08077591209587  -23.24427486933361    4.42137965042573
H           2.69739130738401  -23.88909407007275    2.40772615949928
H           3.21397687289954  -22.54232653123324    1.26747526151187
