77
 SCF done       -135.095378810032          0.000433147082
C          -3.28337780726882   -3.41850385962942    4.92909124822699
C          -2.98947078117114   -3.14894298362737    3.65120005765325
C          -3.59358528056132   -2.16057333127696    2.80109387454820
C          -3.08681309970915   -2.11225763056780    1.55194937653009
C          -2.04349373230652   -3.05295653967910    1.30371624398730
S          -1.73574310534022   -4.00849331327569    2.74214796936623
C          -1.34118016227744   -3.23115774250064    0.14206643002825
C          -1.48466342259665   -2.52522010171191   -1.08461114381786
C          -0.63439511283863   -2.92437529228433   -2.05749905474245
C           0.24921402111940   -3.98295217792464   -1.67559326893009
S          -0.07234351731690   -4.43733674135728    0.00021250778220
C           1.23899045650130   -4.51327821341487   -2.43638736994818
C           2.12215830791449   -5.58878664329454   -2.04780886418242
C           1.71523607283004   -6.78315506286310   -1.51372547546810
S           0.09997769457048   -7.43166931137322   -1.30641503190457
S           3.04682985328276   -7.83812675549794   -1.15378190285545
C           4.17517742948012   -6.64714383409152   -1.73105046551763
O           5.50249672660458   -6.88040903796176   -1.69270887146094
C           3.55796428402397   -5.51115269742542   -2.19118975860692
C           4.22510125696797   -4.33820140120888   -2.69318877524129
C           5.55652096260732   -4.17606481461909   -2.74330043232902
N           6.14985808547248   -3.03488461934664   -3.22407777940101
C           7.47401965819319   -2.76754073118824   -3.19485878690049
S           8.59250269062730   -3.88754361446279   -2.48753849145454
C           9.89287042421305   -2.78258968175031   -2.82970656542516
N          11.17608167430793   -3.16277668699280   -2.46510429507838
O          12.09229580203401   -2.38771217543229   -2.69788669658261
O          11.30027370440762   -4.25739081688916   -1.92994430055970
C           9.47417022228492   -1.63137183295315   -3.44715880636551
C           8.08932325932331   -1.59791249656098   -3.67285895071321
C           7.37421831923524   -0.53388354469866   -4.32936354412775
C           7.87738114277165    0.67735781753847   -4.62889454850744
C           7.11489349481250    1.65261452707781   -5.35161266088252
C           7.53043900627214    2.86530970018905   -5.74303187228939
C           8.87209694944373    3.44586813791112   -5.41799198364509
C           6.66596314700624    3.75447117333636   -6.61337041941239
N           5.55114497249679    3.09998944086132   -7.25673587934566
C           5.75961309750202    2.01090211214998   -8.06725567650006
C           6.90268221221236    1.70141377526540   -8.69604735417781
C           7.06070050102593    0.49977929357073   -9.48410737785788
C           6.56805050978732   -0.71465714860462   -9.10265378069003
S           5.62249288669646   -1.08381932392823   -7.66706858890088
S           6.95814390048323   -1.97919137903080  -10.24044684752191
C           7.86222070556741   -0.84770296442768  -11.20673951368147
O           8.48754601536402   -1.26119726146585  -12.32728239442968
C           7.82643075511928    0.42416561522616  -10.70272476813033
C           8.42840070016056    1.59602866487775  -11.30897558797567
C           9.27607337815341    1.59954975753218  -12.33075756009923
H          -4.05222025513856   -2.86950442070184    5.44368114035182
H          -2.76762651277854   -4.18433941074098    5.47871165616719
H          -4.38325408092875   -1.53061489049129    3.17088475396624
H          -3.42056378805515   -1.43353521184577    0.78700702691912
H          -2.21296022474125   -1.74255565670899   -1.20099999823255
H          -0.59653986090738   -2.50531183388046   -3.04790551694668
H           1.42074119671882   -4.06233798924545   -3.40365089233395
H          -0.49901670226048   -6.48352519516732   -2.02717479938524
H           5.68627261554521   -7.75236666802615   -1.32333342702450
H           3.58119734921608   -3.53772088142639   -3.03107937769208
H           6.23799730060106   -4.93663446661297   -2.39967024623905
H           5.54217521008519   -2.31228152472087   -3.59007867984982
H          10.16431755576260   -0.85972961215864   -3.73326510535741
H           6.35376028075656   -0.74581504752514   -4.62535061882200
H           8.88880349237662    0.92641808070878   -4.34940488929655
H           6.12234158871302    1.32435302954044   -5.63194297238444
H           9.60244708641609    3.14917772323491   -6.17189796183410
H           9.22965623430534    3.10857480827983   -4.44953083288944
H           8.82253115272712    4.53302379548038   -5.41015572883780
H           7.29989147831229    4.19794501448090   -7.38989455072228
H           6.26975172537985    4.58115070194565   -6.01354217458516
H           4.71092837018013    3.05491597223712   -6.70177270540623
H           4.87460440736144    1.41304510077259   -8.24083736068347
H           7.77629470642869    2.32749672254998   -8.60614003418980
H           6.19196868563650   -2.26878320968295   -7.42927377290417
H           8.31303154579379   -2.19520518292550  -12.49147937213559
H           8.12413662356072    2.53156585734141  -10.85841110676322
H           9.60384286984818    0.69268193398456  -12.80573147574903
H           9.66844168831788    2.52215420810344  -12.72316323984083
