74
 SCF done       -137.115248033173          0.000561280670
C          -8.15953349577316   -2.42425295868386    4.78713503871055
C          -6.99190168165381   -2.16539297994322    5.39089987558032
C          -6.62489991350244   -0.98097214240529    6.11531858978153
C          -5.37181056487900   -1.00247884813743    6.61688541363419
C          -4.64395052629349   -2.19571099639061    6.33436832769199
S          -5.62903927029783   -3.29776784268814    5.39788507094078
C          -3.35692365645617   -2.49526678389913    6.70878447855369
C          -2.47267146139637   -1.67595176472768    7.45844822638182
C          -1.25557215093031   -2.23778531233781    7.66565816242786
C          -1.11061388164443   -3.52909363467953    7.08916356087851
S          -2.57865772596044   -4.01785725079287    6.28152346529635
C           0.00624474982668   -4.31982398117982    7.11682164723347
C           0.02239613578880   -5.57609872850840    6.48800973494984
S           1.43463651564496   -6.62628128381677    6.41625507176819
C           0.39686392883112   -7.72841530988724    5.49265636700919
N          -0.80791747324412   -7.25955641284796    5.33823916473190
N          -1.01386101884828   -6.09226978237848    5.87534709728767
C           0.89690221730917   -8.95679003950120    4.99371977993260
C           0.13260234311968   -9.84657993596563    4.31536911294335
C           0.63835427570169  -11.05594352669513    3.78128154613479
O          -0.19711979123731  -11.90436057237486    3.12506402246992
C           0.52206300193357  -12.96505225609529    2.68026377080398
C           1.85104597875638  -12.79949466637162    3.06080841071419
C           1.92824781948259  -11.58650065574576    3.76658103283843
O           3.03922810643303  -11.04751221126910    4.31486468892753
O           2.92476447424588  -13.60828353165894    2.83822469197386
C          -0.07713343893100  -14.02133076749853    1.95012438582502
C          -1.40571361653097  -14.13057882286495    1.69039433883642
C          -1.96209160038932  -15.19885399370942    0.94653110195533
C          -3.29495159108639  -15.35084010666299    0.74389399219262
C          -3.92100689994550  -16.39684837095188    0.00158147280479
C          -3.25684222720373  -17.35117712342597   -0.77401645672406
N          -3.83766461789573  -18.31288496982378   -1.46319627492587
C          -5.16213311001618  -18.47871336559004   -1.48156139487146
C          -5.97436288532503  -17.57523841639333   -0.73758261566713
C          -5.33937365296373  -16.52112831434514    0.00292088609565
N          -6.22455456525974  -15.75891613728152    0.63834909632190
S          -7.70605413472285  -16.31579074953166    0.33071333247509
N          -7.29563608121007  -17.55275378380280   -0.62326629197429
C          -5.66629281585806  -19.54201412669946   -2.25428772719547
C          -4.80437228787560  -20.33547175928470   -2.96832673469203
C          -5.12913729168492  -21.43399258260730   -3.80425608199874
C          -4.05407764607745  -22.01095821282065   -4.40217972005469
C          -2.82511795794474  -21.39283135882411   -4.06263523385541
S          -3.08595456900008  -20.05037302583406   -2.94085282852777
C          -1.57274525733044  -21.73725054312423   -4.51086099764062
C          -1.22748560059097  -22.78831080743011   -5.40910966303182
C           0.09348997820870  -22.88864160787485   -5.67167445410825
C           0.90556452836879  -21.91661962775389   -4.99563979952655
S          -0.13501561549950  -20.87455371415396   -4.01024144760107
C           2.23655661373498  -21.77580010526477   -5.06183242287715
H          -8.96033803736414   -1.70599499713432    4.80681671174778
H          -8.33293941161114   -3.34787553531380    4.26651014971643
H          -7.31998104761381   -0.16738030633610    6.22582598214645
H          -4.93267657354731   -0.20136890496756    7.18461986079557
H          -2.75745446232592   -0.70288814634084    7.81751601237535
H          -0.44903998331247   -1.77575804214827    8.20780196868691
H           0.89832129789221   -3.97791109826908    7.61772067170367
H           1.94108494207007   -9.16379430241522    5.17017599583277
H          -0.91526491305641   -9.64288777105004    4.15262643382355
H           3.77739051398501  -11.64561194496486    4.13596419222507
H           2.64716098502204  -14.37986711313352    2.33350032089339
H           0.59716156467877  -14.78825078097610    1.58785286573985
H          -2.07327513286814  -13.37129170565475    2.07193968523558
H          -1.26787924711918  -15.92272974363507    0.54047167107149
H          -3.97779283391581  -14.63934491607512    1.18983229426052
H          -2.17920842088803  -17.33507661406318   -0.85755441992624
H          -6.73062383061129  -19.71187197289212   -2.28001413738913
H          -6.14849367174856  -21.75400950736846   -3.93368999893938
H          -4.11536722733775  -22.85164232811260   -5.07085796026252
H          -1.97961345917587  -23.43283270229615   -5.82856991431893
H           0.53963792132518  -23.61804528206883   -6.32441011323768
H           2.82928220661636  -22.43294254514927   -5.67358067785807
H           2.75152822893993  -21.00981793717555   -4.51189240519118
