109
 SCF done       -189.108722613365          0.000561884840
C          10.17169010554233   -6.86355777942625    6.60284970448006
C          10.07564325683410   -6.21466375158880    5.43466754856929
C          10.88380468455842   -5.12458312697673    4.96657874333602
C          10.55608779378711   -4.67430821108813    3.73590954542309
C           9.46972574535538   -5.36435389423806    3.12763595320700
S           8.87214356282661   -6.61727908948167    4.19863934312706
C           8.92602892961248   -5.14223049155834    1.88646311374815
C           9.31327742913910   -4.18175742794936    0.91755265594181
C           8.58525916621825   -4.22986518465514   -0.22691874611153
C           7.57436227615755   -5.22913719694903   -0.24094693674446
S           7.58621195513505   -6.10332351851073    1.28160178329708
C           6.72333454345363   -5.49558815733474   -1.27797200092562
C           5.72758010149965   -6.48669170175360   -1.31744238455972
S           5.34887974151151   -7.54136573851837    0.00711072851502
C           4.11345529115780   -8.36017760765800   -0.90052124595278
C           4.00570837271720   -7.82515691214989   -2.17379032245894
C           4.91293007386124   -6.77544434877249   -2.41476137284134
O           5.05952892675043   -6.01683363701310   -3.54291406372942
C           4.39733053005847   -6.41141343215356   -4.69348957681167
S           2.59494094470486   -6.61943883534010   -4.39920444128977
S           2.80733896449130   -8.37244662660994   -3.35576775595906
C           3.40784801820181   -9.45200968502712   -0.28529990945580
C           3.32254836803118   -9.49325638018069    1.11645355195936
C           2.69759854652602  -10.54864345251324    1.72815591526662
C           2.11203794719687  -11.57038302927222    0.95464342243981
C           2.18677607107419  -11.53658246302576   -0.43145584255919
C           2.84204221505119  -10.48640307484014   -1.04056514303935
C           1.47470478459270  -12.51096394725334    1.84415265767760
C           1.64448475184541  -12.06289426254065    3.16760560260557
C           2.49304939325227  -10.80940269024889    3.20215186902004
C           1.78074452054516   -9.64240678619841    3.90152188832265
C           0.41837307019561   -9.34302303606137    3.28646910100242
C           3.81836900713587  -11.17701796966738    3.91150164462941
C           4.90739873942962  -10.11239986029274    3.88498901832801
C           1.10470861218519  -12.76422898005860    4.21379821490265
C           0.39193578450197  -13.95468634709727    3.97095288802807
C           0.24348638686997  -14.39207180693467    2.64171485932267
C           0.76967618731999  -13.68126119013601    1.58599928725736
C          -0.14798180325380  -14.66826814059108    5.08984727524317
C          -0.69812117723030  -15.91283418819330    5.06400880831450
C          -1.21712716067311  -16.57257110393096    6.19050082064799
C          -1.73229778915027  -17.84514829685104    6.14199971593662
C          -2.30420896146917  -18.60286076058136    7.19136552354627
C          -2.73626142956556  -19.84173319916028    6.81726285123367
C          -2.52114973563814  -20.13187011293698    5.45240643225154
S          -1.75988578211058  -18.78434586214639    4.65432839596075
C          -2.82141915219117  -21.27855291924110    4.73443687391766
C          -3.50421962729115  -22.44679809839840    5.12695353078614
C          -3.63305141511209  -23.35233067613943    4.11361418754664
C          -3.06904766950924  -22.94219001115976    2.87802129500387
S          -2.39259068312505  -21.36024667652418    3.04258838076999
C          -2.96706634218994  -23.76592006976259    1.76026804959371
C          -2.32050428178000  -23.57627025845723    0.54738406558410
C          -1.87348293337259  -22.40158679205567   -0.05402142459830
C          -0.87863776294239  -22.30416696909337   -1.09245409169469
C          -0.17803159574035  -23.33080003076434   -1.68233394265776
C           0.77782135905687  -23.14713889738848   -2.69998893925635
N           1.55951527967159  -23.06235863282040   -3.53797506163418
C          -0.30721950393969  -24.69866271356652   -1.37236537394390
N          -0.32930209265628  -25.83114501099911   -1.17645149960688
C          -0.67572374642631  -20.88150379617018   -1.38095412634478
C          -1.59272074458137  -20.13646202691194   -0.60297966453996
C          -2.40932435049713  -21.07184769753345    0.19366615152628
O          -3.37148642582258  -20.77259902380342    0.89087760882980
C          -1.62319375414506  -18.76617640399458   -0.59302238156816
C          -0.68481898924155  -18.09105375220108   -1.38241075345815
C           0.22107519214644  -18.83997473738027   -2.16491426440385
C           0.23967458112188  -20.23146091048604   -2.18473150721853
S           1.30798149428420  -17.80605528997881   -3.04715452122228
C           0.54586469149145  -16.40486023240303   -2.34508872318132
C          -0.47548269177854  -16.68976785987362   -1.50474165523025
Br          1.17854064549151  -14.69166325795325   -2.76862163118550
H          10.92067727869348   -6.58804760831956    7.32407273498065
H           9.51387431764294   -7.67496737422304    6.85446513673541
H          11.67648374092552   -4.72906088595959    5.57660050749175
H          11.05648472723960   -3.86637172563035    3.23208157842058
H          10.11724538602816   -3.49013119524500    1.09474018042612
H           8.73555331931276   -3.58312014270452   -1.07346250798665
H           6.81823242222297   -4.89939627881786   -2.17543553456085
H           4.77327953220376   -7.35973384728889   -5.09274837902570
H           4.52154147509525   -5.60837140559877   -5.41906797766031
H           3.73646505228016   -8.67568704421148    1.68674263854907
H           1.75019275977945  -12.32025800383641   -1.03024378784670
H           2.93923170408351  -10.47420588367504   -2.11556699135608
H           2.40547688719983   -8.75142757219895    3.83237120806840
H           1.65789237690037   -9.88650765819988    4.95895879004760
H           0.52218685318475   -9.08605637665640    2.23464741650876
H          -0.04967995895453   -8.50669157643850    3.80057473685263
H          -0.23887311249179  -10.20647554812337    3.36382073252626
H           4.20641852794874  -12.08567373544952    3.44352853470342
H           3.58025525884051  -11.41825940849840    4.95022298717497
H           5.24568204267255   -9.92289281327506    2.87044536676595
H           5.76104736158379  -10.45906345745516    4.46335164063049
H           4.56450671000585   -9.17871302338892    4.32204247483158
H           1.22498350791088  -12.42162357756207    5.23186857242337
H          -0.30815856041804  -15.29767757177797    2.44222464180340
H           0.64128248641318  -14.02536790337409    0.57075568920344
H          -0.08426614931935  -14.16229922661494    6.04620431845983
H          -0.74275432426658  -16.46209610179105    4.13331753744137
H          -1.21848137446525  -16.06001711477719    7.14356714221809
H          -2.38294844881027  -18.20796347440932    8.18918656897279
H          -3.19672203980371  -20.55152513875141    7.48087579894177
H          -3.88869341244063  -22.58670442473897    6.12148704840270
H          -4.11841109203031  -24.30727507940573    4.21505402925843
H          -3.36459204393160  -24.76214895943782    1.91957652451028
H          -2.12095525977428  -24.49129732947536    0.00297940582305
H          -2.33207911582990  -18.23080975417212    0.01884765785559
H           0.95694639556216  -20.75408665985887   -2.79527710071874
H          -1.05763567263696  -15.94729907721110   -0.98937902429703
