81
 SCF done       -156.514599532214          0.000540722450
C          -4.18402179335045   -1.47982744096413   -7.05222629207364
C          -3.06234277774322   -2.14739420909989   -7.35375605006098
C          -2.22820168048185   -1.98714114321996   -8.51063835347112
C          -1.15278948956062   -2.80388224271217   -8.54035755317025
C          -1.04526342264545   -3.67293622729493   -7.41748411585098
S          -2.37985018959776   -3.40971305800466   -6.31557870415037
C          -0.05597909473002   -4.59547277578183   -7.17200886451636
C           1.07656758923815   -4.89091391090509   -7.96942030786108
C           1.88915274967349   -5.84214024169157   -7.44052283260945
C           1.45581575026857   -6.36217307984424   -6.19177215470634
S          -0.04951549144596   -5.59171214346177   -5.72733218386268
C           2.13893585130053   -7.30142121182364   -5.46181580325623
C           1.79714650124700   -7.86642231620679   -4.22362250070364
S           2.96467303123187   -8.95899990881420   -3.47692856910138
C           0.65957370304947   -7.72112614849421   -3.42869464760222
C           0.73522540850098   -8.46428075005295   -2.26192742231895
C          -0.11504736583533   -8.71769099394206   -1.06076076225217
O          -1.20867880089994   -8.27738651364031   -0.81379240360722
C           1.93101094672217   -9.18461578576371   -2.13628021987737
C           1.91627811570762   -9.88435999544711   -0.90575394847911
S           2.95688219410044  -10.90614565090565   -0.00671606600158
C           0.71661657637483   -9.63794567999100   -0.23874851786934
C           0.62485799117566  -10.27173798292095    1.00697481307701
C           1.76325475544386  -10.99102749088665    1.28540013965680
N           2.12606529709682  -11.72327743930547    2.38701635041350
C           1.39192606271129  -12.12405558467572    3.45234634686108
S          -0.32813623648426  -11.95749569437428    3.52512892273766
C          -0.32608463216829  -12.75998823266934    5.06893924580279
N          -1.55288344779780  -12.93962104674147    5.70256997271996
O          -1.55853651015550  -13.49678051821614    6.78790072969277
O          -2.54138524724703  -12.52459241924742    5.11553307386288
C           0.92526685328039  -13.11940114377408    5.49315880891392
C           1.93736481425467  -12.75995452121454    4.58570664272817
C           3.34519319740132  -12.95488365121442    4.77488021475117
C           3.92428048356100  -13.55540669561106    5.83879677507430
C           5.32981014627313  -13.68261001730272    6.00901213369837
S           5.94794584747593  -14.45749628938750    7.46366061824404
C           6.36128330749351  -13.25651649106750    5.18680904335042
C           7.61442788771655  -13.54053439478140    5.71516379094939
C           9.03225108178108  -13.32899550492141    5.33221468594527
O           9.46888002840075  -12.80771358818498    4.33543305205798
C           7.55726731120599  -14.19242810224523    6.95489038237745
C           8.87641464157229  -14.42137828256416    7.41746209088289
S           9.67099277203915  -15.10725010442036    8.76692214291600
C           9.78577430750302  -13.91493170294570    6.47636834173448
C          11.11123112211962  -14.07483115339955    6.84231651959603
C          11.24687461740173  -14.71025947594046    8.07663090719970
C          12.39281446788481  -15.05381183246761    8.81019500953853
C          13.70752268516107  -14.82192895404205    8.49232072520758
C          14.81308127008952  -15.19934930159969    9.30032816561341
C          16.02719192174850  -14.86034657736497    8.79371490895548
C          15.96284179967609  -14.19147231105140    7.54700010331025
S          14.29025318438645  -14.01426346558122    7.04821193021365
C          17.00358302166707  -13.72087536208496    6.78191250384293
C          18.39461686190959  -13.80196465068750    7.07405677806925
C          19.19374592219227  -13.25093235044284    6.13452654636611
C          18.49262079513138  -12.68519515696748    5.01726542351242
S          16.75124153173813  -12.90759429596343    5.25159690202000
C          19.01480266385978  -12.07718724079070    3.94365425975824
H          -4.56367621607736   -0.71842880917370   -7.71055945090078
H          -4.73571239551035   -1.67902795705201   -6.15198165354698
H          -2.47391294981883   -1.26393554160571   -9.26783367144409
H          -0.42302290869192   -2.81742374759446   -9.33032068479439
H           1.25899056531636   -4.39180601576766   -8.90394082358772
H           2.79562300257122   -6.19267844499194   -7.90205765517138
H           3.07441556413932   -7.64014168949217   -5.88952751277202
H          -0.17790008262538   -7.10685131107761   -3.70097650346218
H          -0.21917063412021  -10.18119245610321    1.66327191730849
H           3.09308956115699  -12.02406557654422    2.39364193476752
H           1.08469233795679  -13.61683778320067    6.43150488719439
H           3.99675016450739  -12.55840989836066    4.00846089345899
H           3.31393156869530  -13.96393760353399    6.63046666262979
H           6.21290845592350  -12.75750255769673    4.24746126405646
H          11.94284525733079  -13.74845748088761    6.24714599398145
H          12.21687321179716  -15.56100756432562    9.75053633046786
H          14.66651711253483  -15.71092363546401   10.23540156719935
H          16.96398926892940  -15.06984515435136    9.27779983955386
H          18.75047359270952  -14.26835922340973    7.97556368580536
H          20.26771722451607  -13.21710639659410    6.18172189893997
H          20.07964341701715  -11.96483962228093    3.84023206431609
H          18.39523399251253  -11.68818107532869    3.15663828761952
