76
 SCF done       -141.678642371027          0.000566583419
C           4.42536848449182   -2.24749229415057   -8.77968343728470
C           4.88160893751563   -1.77605846850873   -7.61120781321113
C           5.63125907942972   -0.57442499130275   -7.38082753877642
C           5.95325604507328   -0.35697182803475   -6.08637046052453
C           5.48768419464467   -1.35830258685508   -5.18880179256225
S           4.62094586399502   -2.60170140263937   -6.06579233972593
C           5.65136124798676   -1.40100505448999   -3.82351691919213
C           6.32780040797733   -0.46713179285636   -3.00065548296653
C           6.30512510468462   -0.78309137945028   -1.67810953359066
C           5.60933186347632   -1.98053442189638   -1.37811386940130
S           4.98867223573642   -2.70085712201953   -2.84824898387221
C           5.42330254774609   -2.53292569335020   -0.13375333468607
C           4.71469396664225   -3.71795940890862    0.08225377403538
O           4.15768988751000   -4.37955051840890   -0.95499621736937
C           3.55157461529707   -5.50150342624159   -0.47822699430345
C           3.71336983818961   -5.55289776575747    0.90149329157024
C           4.45989938486211   -4.42456050054147    1.27422440870874
C           4.96742791799149   -4.06143743553507    2.59857772849270
O           5.66426755989026   -3.10148682222194    2.81261500097413
O           4.63496685470871   -4.89411827635004    3.60691455767707
C           2.97262120853709   -6.38137928410142   -1.40826408522494
C           2.37459877381426   -7.59080091832584   -1.12952933762106
C           1.83325538427749   -8.49540612186511   -2.06866216447040
C           1.40088990642941   -9.67716848252058   -1.53129938915926
C           1.58631455099241   -9.76857048912226   -0.14140347214292
S           2.25376709223131   -8.28339207108558    0.47577262858927
C           1.37862243399970  -10.84589054359160    0.71285735816346
C           0.77295206319731  -12.08374282947343    0.44897562274054
C           0.75931029929984  -12.92674127888874    1.52929072451311
C           1.37235151669472  -12.39312599231623    2.67879276121194
S           1.95252041806798  -10.78017006903729    2.36227233012464
C           1.48345844222866  -12.99884580850954    3.92008047510672
C           2.18040040650383  -12.46726815781907    5.00423107532961
O           2.99544078091794  -11.39021331576471    4.84842273876633
C           3.58534735412401  -11.12336478976536    6.04643575485624
C           3.13326066858331  -12.04291974343486    6.99604239045536
C           2.24345072597622  -12.89707987969872    6.35301192172958
C           1.52319818265272  -13.99658444297041    7.01699348627347
O           1.95752554403621  -14.59209704747932    7.96397614204380
O           0.30300155727887  -14.29588007910897    6.51690199926332
C           4.50242884539446  -10.08489468856411    6.22477471646095
C           5.06805019708508   -9.29571499724008    5.24699996454354
C           5.95694554640363   -8.21754688658533    5.46631348232871
C           6.39782830153649   -7.61293286077039    4.32696524450957
C           5.89043923136342   -8.19592085951449    3.14545801806717
S           4.81527404921066   -9.52692036347957    3.53243100418612
C           6.12462399620090   -7.80827980190253    1.83994700269456
C           6.82925110862953   -6.66403323001980    1.38581747674705
C           6.74589759605697   -6.45475781337001    0.04858307456801
C           5.97519926584688   -7.43212273133023   -0.65434639486270
S           5.43795414511542   -8.67186544006940    0.48484758436512
C           5.60738175357366   -7.42915700738161   -1.94784398113233
H           4.60576860633704   -1.71267265349417   -9.69533948406064
H           3.86883394206076   -3.16462157526166   -8.84104395783257
H           5.89376986458513    0.07313144340028   -8.19849611911784
H           6.51022935361286    0.49330917499102   -5.73481562683845
H           6.80844032154274    0.40538368796098   -3.40527780274405
H           6.76093113734488   -0.19798588831357   -0.89928560305264
H           5.83796219054200   -2.05140759490063    0.73773236415093
H           3.33156354118566   -6.32636755952556    1.53709906422612
H           4.07641481908981   -5.62479020102386    3.31222358566776
H           2.99521047926718   -6.05418233689677   -2.43783916370873
H           1.79649778348705   -8.25640514021968   -3.11688168165128
H           0.98552871824778  -10.48623574734943   -2.10505662309494
H           0.35482277904160  -12.32563191663760   -0.51176603730057
H           0.33505569421997  -13.91534610972989    1.52319574280383
H           1.02107183606585  -13.96796763712701    4.04057227653595
H           3.41479098131684  -12.08281304522498    8.02806902657202
H           0.03070176055625  -13.68545555206276    5.81897925333706
H           4.80967239879862   -9.90760854596841    7.24536805576888
H           6.23620868859992   -7.91756612949218    6.46056447012970
H           7.06626091361624   -6.77178149309874    4.30834297218375
H           7.34509689246812   -6.01195431153098    2.06814717604206
H           7.18699420212439   -5.62206511183037   -0.47024150297749
H           5.93303713649394   -6.64357415084913   -2.60652705664060
H           5.02832857542469   -8.22857239173051   -2.37166352586479
