63
 SCF done       -129.279165395472          0.000718308169
C          13.37935948325721   -3.64204999515858    1.82781377362422
C          12.73429788198246   -4.24918579309320    0.82190631162480
C          13.20413621098651   -4.47090455283622   -0.51549393263100
C          12.32752096884370   -5.11853669818909   -1.31485971355707
C          11.09901104649965   -5.46154101806787   -0.68513733856837
S          11.10227609672607   -4.91890016237418    0.98177652608062
C          10.03327635137426   -6.13367567829699   -1.23556366297246
C           9.90995541173720   -6.62732418610905   -2.55869322079356
C           8.74710647429810   -7.28891213657575   -2.78582891716720
C           7.87306996231578   -7.35389771762040   -1.66503890775097
S           8.59498408373835   -6.51347476138669   -0.30774857419677
C           6.69790529711000   -8.05943937547672   -1.65222927949358
C           5.76441957787303   -8.21173532860698   -0.61101327348047
S           4.64225504654172   -9.55662860389887   -0.67781915281009
C           3.94374521320443   -9.14760381931127    0.86066407493164
C           4.55127823258858   -8.01111051137766    1.37248671172650
C           5.55277029744548   -7.47041744099699    0.55035336442491
O           6.20246300376365   -6.32764632078645    0.82954116132974
S           4.10555782863493   -7.19667638063326    2.88747427946791
C           2.93968868764445   -9.95834469214288    1.42600308296565
S           2.22124962030814   -9.67649774677402    2.99180857284547
C           1.23584509715004  -11.10465051164227    2.86457795685716
C           1.43408988163669  -11.72774438631275    1.64315013476255
C           2.39782291147770  -11.09627077639420    0.83962345541973
O           2.78336401049729  -11.52006250308544   -0.37633085449971
S           0.68166577484474  -13.24149758516808    1.10197309377546
C           0.41381858455634  -11.48108163762514    3.94639692807548
S          -0.57116056715616  -12.92181144145083    3.96978146119634
C          -1.10029891118158  -12.60520835872199    5.59981519346557
C          -0.51251565544435  -11.45174828889443    6.08847120228807
C           0.32447713030351  -10.81030429640816    5.15980499749845
O           1.00435719147642   -9.67225286470860    5.39081557545403
S          -0.78196597183839  -10.74191431297895    7.69197310234583
C          -1.99935308189826  -13.50738387835039    6.20631469589097
S          -2.62129202455627  -13.38684674079882    7.83988428835084
C          -3.60545648046240  -14.82274613180465    7.72357353833973
C          -3.45646328296659  -15.37305890197252    6.45421440731128
C          -2.56462020085276  -14.62789191441914    5.63097148307043
O          -2.44676876923480  -15.17724450162168    4.40665692624233
C          -3.25376468946807  -16.27365177623606    4.43473024846400
N          -3.34336905810832  -17.05665679479508    3.26330316382347
O          -4.05326136573837  -18.04561821062712    3.32724290163495
O          -2.72248272978016  -16.69532437000360    2.28535757409415
C          -3.88974012500955  -16.44960302372719    5.63629387472902
C          -4.38136255652906  -15.22444476450788    8.85107569551461
C          -5.16520472358650  -16.30418203140018    8.90265372314065
H          14.37103674335500   -3.24985018422672    1.68693764180002
H          12.93325286204514   -3.52861919351088    2.79861236693953
H          14.18058314996746   -4.13485423361657   -0.81643132869643
H          12.51672685510760   -5.36857926602878   -2.34384960151553
H          10.67845119208790   -6.48201812538860   -3.29658992672862
H           8.47737907517737   -7.74168776612979   -3.72393898074401
H           6.48124646595977   -8.63357454030171   -2.54480710336387
H           5.91946886581429   -6.01339697512347    1.70403380306359
H           4.42220775043448   -8.19725395900540    3.70800795775936
H           2.27605160087906  -12.31394106826658   -0.60806992147103
H          -0.58619516190231  -12.87393461294898    1.27379022704222
H           0.82252737974020   -9.37256935423356    6.29509337304938
H          -0.45757569591514  -11.82280568214886    8.39972161867324
H          -4.56580261503634  -17.24736986715256    5.86242141231979
H          -4.29780302470158  -14.57580318248455    9.71336000575284
H          -5.27309913575098  -16.97340498235632    8.06873262949561
H          -5.72189347244535  -16.54213408389918    9.79092917379564
