91
 SCF done       -160.875701553171          0.000376704014
C          -4.26796841664154   -3.29515773732795   -0.75736441440712
C          -2.95440852699363   -3.17311371265255   -0.49824590811849
C          -2.23373416455661   -1.99593505115915   -0.12957273518588
C          -0.90287690853467   -2.19436882057741    0.06278682990757
C          -0.47762939263245   -3.52603505616941   -0.13778205515179
S          -1.83092179819515   -4.53916442544049   -0.58037895252453
C           0.81695821080036   -4.02352170205000   -0.02745719564368
C           1.98432839035528   -3.32443861735976    0.30467340396958
C           3.11492241728558   -4.10969674192466    0.30670011948765
C           2.88320620977448   -5.44660101386565   -0.02026989573606
S           1.18334435637299   -5.70733259799045   -0.32781201128523
C           3.84401987652222   -6.46211998667572   -0.12777675035132
C           3.58104647072255   -7.76011522989469   -0.45787940893438
C           4.56212065193159   -8.75409338079348   -0.62242282995888
C           4.36536624513869  -10.08258655833540   -0.97845391466644
C           5.53836495808168  -10.80714417156388   -1.11806060202325
C           6.68178072844690  -10.06100684285043   -0.86985819751857
S           6.26728656928862   -8.42458339784990   -0.44103387518913
C           8.03020647712273  -10.46600003959456   -0.97325277710582
C           8.53473818974557  -11.68350285402827   -1.40438566060896
C           9.91966240655094  -11.71817904474575   -1.45690646670919
C          10.53608735050366  -10.54597096639299   -1.03739709196007
S           9.32584811305678   -9.36510610482108   -0.59385713557318
C          11.91618822987677  -10.26888054003062   -1.14707020052527
C          12.66085749381912   -9.25626311361211   -0.61076203268274
S          14.20230919208951   -8.86580845014109   -1.36434690108767
C          14.43516146001309   -7.41261911311967   -0.39583042149359
C          13.44312124120740   -7.37697111293463    0.64357311066493
C          12.45921004960654   -8.39036971280410    0.51713132909079
C          11.50245121110185   -8.56494454736683    1.51613807132744
C          11.48403771993109   -7.70853158839814    2.59223239815706
F          10.56581180297920   -7.87903528428378    3.55867638728573
C          12.43273956517865   -6.69065144891965    2.70495439257793
F          12.41705470911301   -5.87634111935326    3.77494734499734
C          13.41537193818134   -6.53183080949468    1.75413214408132
C          15.43515787703063   -6.55481006547924   -0.76938888454166
C          15.73284036521228   -5.28230624792233   -0.25718807061264
C          16.74056032981481   -4.49691568486773   -0.73873635242926
C          17.06247426116322   -3.22931347048698   -0.21560449725006
C          18.02031410617533   -2.33515500561682   -0.67294982947611
C          18.11825788186189   -1.17772243834225    0.08512113550583
C          17.24412245687878   -1.14629296103123    1.16186755545084
S          16.26781625713670   -2.58636322187397    1.20125404587123
C          17.11751799010557   -0.15834992147367    2.16253451019910
C          17.79441273062573    1.04781480387286    2.27493479255539
C          17.46708344170716    1.76035957754129    3.41778961328223
C          16.52974347590930    1.12966605153319    4.22646036589896
S          16.04179848005777   -0.38729854194164    3.51306836095310
C          16.03140680493113    1.57185035970483    5.46504665974747
C          15.12254721215792    0.88657056544251    6.21837710821919
C          14.65479275098445    1.28246855234146    7.47939550621033
C          13.73269917495516    0.60292536691057    8.27706598015827
C          13.47840064070995    1.20937243398243    9.48626833077145
C          14.19907775057623    2.39449254046635    9.68156903988122
S          15.20364214700910    2.72978751107583    8.28927433281334
C          14.18515231202143    3.23202663168061   10.79236475381585
C          13.43390375196371    3.06941903041148   11.97719786897347
C          13.63126112033759    4.04363370621699   12.90424600316534
C          14.56238939280854    5.05131508532027   12.50611927938118
S          15.16307374088524    4.67736101573537   10.88301561217965
C          14.96388736575680    6.13085450106727   13.19945953619085
H          -4.91899246105238   -2.44109974652878   -0.69923843655150
H          -4.70492631458519   -4.23789020781754   -1.02998697329105
H          -2.73579729444960   -1.05096217468489   -0.02395095907179
H          -0.21182017838620   -1.41915960958075    0.34274679015027
H           1.98237623062606   -2.27357114254937    0.53036580269075
H           4.10127702116090   -3.74487367675810    0.53377853798152
H           4.87017312032280   -6.16874905648531    0.05792880127020
H           2.55540645051245   -8.06312697631284   -0.62707535447414
H           3.38356820285816  -10.49306974753387   -1.13552100923563
H           5.57185867411885  -11.84572790758451   -1.39364658508549
H           7.90456568341816  -12.50733021582078   -1.68593100553623
H          10.48452673704190  -12.57435945297935   -1.78144434079651
H          12.43658906379763  -10.91339005489731   -1.84716848578318
H          10.79498994106361   -9.37486849543355    1.48449412530264
H          14.16468990395450   -5.77898666574350    1.92266605056008
H          16.05150606528005   -6.88693367711774   -1.59691451314918
H          15.12665353975552   -4.87159899143247    0.53473617651521
H          17.34855985460666   -4.84588610729288   -1.56336499554478
H          18.62512912614859   -2.53627890798952   -1.53957342288775
H          18.80945767799205   -0.38156785179250   -0.12450769976678
H          18.50403591530627    1.38549434690935    1.54129187114019
H          17.89545182451826    2.71307805235450    3.67464402955749
H          16.42100351655247    2.51220883838481    5.83424842882519
H          14.72718745722094   -0.04689375123943    5.83653714441734
H          13.27479294274078   -0.31611011291375    7.95593014741815
H          12.79792062564392    0.82059288327753   10.22185258305414
H          12.76907300543096    2.23477814381102   12.11172605774338
H          13.14845452866359    4.08556995016139   13.86410196273349
H          14.57695733930141    6.32387329305072   14.18411605240857
H          15.67583495421873    6.82772974244279   12.79783836531446
