92
 SCF done       -155.672384026136          0.000368445533
C          -3.13399937923033    0.81516682565257    3.26922117469726
C          -1.80634332647272    0.60470216961297    3.31465528542592
C          -0.76200371283187    1.57400345490189    3.40728977743222
C           0.49044637725005    1.04370282652966    3.43072045165426
C           0.52737393153077   -0.36483956797170    3.35828743900675
S          -1.09178128000636   -1.01435374790969    3.26060112205164
C           1.65611176488946   -1.18122546546791    3.35079782263989
C           2.99945866448973   -0.79645507764588    3.41760745799835
C           3.87927889255608   -1.85669128158826    3.37150040305808
C           3.26554493402810   -3.10363912685986    3.26849109071495
S           1.52859460178573   -2.92147763601159    3.23555037426733
C           3.90320744631499   -4.35231193625826    3.17859121297649
C           3.26280924870284   -5.55004309893046    3.07030798718273
C           3.90776090152626   -6.79535860400973    2.93398986395544
C           3.31117894703638   -8.03947198576635    2.79518872979241
C           4.21422128493416   -9.08203710711408    2.63596387737167
C           5.53729088851108   -8.67302348312066    2.64938050346128
S           5.64601949222304   -6.95043670666664    2.87787037302748
C           6.69853668256449   -9.46146637242718    2.46324155138424
C           6.77771375543438  -10.80911344107801    2.15934010165920
C           8.08105789444069  -11.25784757200313    1.97344329310799
C           9.04036721527667  -10.27548282060875    2.13879204429241
S           8.28759033726640   -8.75545158578373    2.54428783399356
C          10.43956365330204  -10.39933864787123    1.96073779730423
C          11.33391286858438   -9.40920961202633    2.19514555910645
C          12.71999176746630   -9.48020933382866    1.91549892865224
C          13.67105675061231   -8.50882984897629    2.16649446390177
C          14.94090714184709   -8.82998752150937    1.69679511886993
C          14.99818078404007  -10.05812260464686    1.06490491675415
S          13.44124703805623  -10.83635170773005    1.08992263202396
C          16.10127494800278  -10.63929571390273    0.38846502522572
C          17.35261870544850  -10.09033605490365    0.17937387733141
C          18.17333224812977  -10.87592213895783   -0.62425923367798
C          17.58251975885366  -12.05253734310014   -1.04509074633866
S          15.96567218466014  -12.18233227792633   -0.40513578603681
C          18.13038134546355  -13.01712962606224   -1.92544944255060
C          17.54489370697696  -14.19395463566348   -2.25224600540459
C          18.04658440115361  -15.10061099506989   -3.21768541481295
C          17.55286960845523  -16.35348714925132   -3.53172633344172
C          18.22684185346739  -16.97889768720069   -4.57566690725276
C          19.25190673873620  -16.21446489848728   -5.10389228622669
S          19.39186124131848  -14.70200736451011   -4.25304554033985
C          20.08162996216154  -16.50830905780385   -6.21316372070998
C          20.11569595528326  -17.66376108383772   -6.97569972637225
C          21.00317950294482  -17.59723556376959   -8.04176836124000
C          21.67816047836431  -16.38974868356232   -8.13650010018759
S          21.19502792920357  -15.32556574245910   -6.83911594103300
C          22.59820141546436  -15.99798994546258   -9.12955294645640
C          23.20777343294803  -14.78051210840605   -9.17903976726040
C          24.08256958270372  -14.35380912252757  -10.19204546499482
C          24.71740263618037  -13.11611295644830  -10.27822631546342
C          25.50046841595515  -12.96035866030365  -11.40186571490224
C          25.50330279015198  -14.07972724438923  -12.24091755023556
S          24.49655237047120  -15.34306586234025  -11.57053158613253
C          26.17174239723779  -14.24261394976144  -13.45220325836757
C          27.00345662075690  -13.30696498252176  -14.10284601621506
C          27.51607051607010  -13.73951832688414  -15.28630499150214
C          27.11572031178716  -15.06106221651458  -15.64936221854559
S          26.05378611695782  -15.71176937006934  -14.39076324718510
C          27.44972162988122  -15.75841234291769  -16.74991096751858
H          -3.53104261956376    1.81407092479462    3.30266043070606
H          -3.83283503529907    0.00250741321635    3.19772894393715
H          -0.98515331652999    2.62493037358378    3.45143001277201
H           1.39118801229956    1.62795725912471    3.49624088762948
H           3.30216390917097    0.23199974940387    3.49496980634681
H           4.94953677203648   -1.75190443575118    3.40786281467496
H           4.98629731451539   -4.33614128575866    3.18647513175254
H           2.18012011380289   -5.56988947287844    3.07031934493476
H           2.24317490111472   -8.16725566169070    2.80487516568774
H           3.92471695072408  -10.10974656378121    2.51097105488780
H           5.91030213948682  -11.43651207457808    2.06227401768369
H           8.33416549309379  -12.27205704534467    1.71921787648086
H          10.78911787011317  -11.35505142772748    1.59021947972554
H          10.98424398285816   -8.46823382420538    2.60214191795697
H          13.43455235720572   -7.58867331123508    2.67103534488743
H          15.79542260458980   -8.18602559296604    1.79927999586321
H          17.64831493579340   -9.14022626319183    0.58581482463823
H          19.17445499556779  -10.60146996506763   -0.90629220486014
H          19.08140835939166  -12.75788747576753   -2.37450632900487
H          16.61773184199299  -14.47816255116151   -1.77012401196034
H          16.71996503143048  -16.79098732196719   -3.01008302398744
H          17.97119119561713  -17.95209011834282   -4.95382126358978
H          19.50739573599871  -18.52273094407215   -6.75699882899123
H          21.15763349359363  -18.39725260524297   -8.74405641768713
H          22.80402385352273  -16.72370968335570   -9.90632422862042
H          23.00642480965553  -14.06334703373979   -8.39245314289817
H          24.59154109391545  -12.35984313979954   -9.52329273072294
H          26.05741644359304  -12.06893941696881  -11.62660813330500
H          27.20007362773757  -12.33800008647353  -13.67928242538632
H          28.16719472078875  -13.16487551131840  -15.92031120348237
H          28.09757776134578  -15.33000745454891  -17.49375432690850
H          27.08513627881124  -16.75446173071852  -16.91960127907690
