87
 SCF done       -149.351037606446          0.000675703146
C           9.72087014786570   -3.84703204113549    5.52937691534529
C          10.45413149625863   -4.41586945059281    6.50056060189379
C          11.02322234268950   -3.80187813318447    7.65825394778770
C          11.66005663913531   -4.66868325455034    8.49263618758151
C          11.69001311011621   -5.99878091873502    8.02909514414207
S          10.85991465667817   -6.13675989714767    6.49669771175677
C          12.22225181762276   -7.11942683239281    8.66119746050325
C          12.91719184127824   -7.19675015677767    9.87114124618198
C          13.28541215039891   -8.48155807450932   10.20342369579491
C          12.89209320207514   -9.45849860088000    9.28259241308370
S          12.06299949046568   -8.70666354617635    7.94779894897186
C          13.11152105748560  -10.83229987261971    9.49035284801826
C          12.69372716421254  -11.97592639487209    8.86514618621093
C          11.91990055092022  -12.26857671720270    7.72300096090602
C          11.44112653130504  -13.55351348317602    7.46412832712574
C          10.68726088529803  -13.66445708932351    6.31239805748488
C          10.57926340824971  -12.47069526168817    5.60913048129324
S          11.43035702207384  -11.19509954739442    6.43793388835977
C           9.89304425251202  -12.25092208277701    4.39759161516981
C           9.06436417575726  -13.13773091600098    3.71732543136767
C           8.53480782916739  -12.61456089330655    2.55390558833141
C           8.96658678999028  -11.32101048005994    2.26026308726000
S          10.01958648173262  -10.74908683214490    3.52909049743095
C           8.50741422045491  -10.54254199713485    1.18516521778590
C           9.00390878155049   -9.35691130801619    0.69677117644390
S           7.93409101316880   -8.30192139132262   -0.24237676469063
C           9.10736286192635   -6.98271539133758   -0.21197778742751
C          10.35656973210016   -7.49569317255529    0.23037228633079
C          10.28788800650480   -8.76714876092956    0.76079739016324
S          11.74493006340032   -9.56312021287288    1.31995664582904
C          12.44759097603032   -8.08793064403600    2.14577858466044
C          13.00264102694056   -7.09418685620447    1.15860981642410
S          11.86132998406554   -6.72535347342077   -0.23791549033850
C           8.73051831376395   -5.68169926853177   -0.45735756999956
C           9.33842793383335   -4.55935946838643    0.13022641722495
C           9.05932731036492   -3.20683775777616   -0.05814346507733
C           9.71230514902678   -2.35949425111675    0.82545960024197
C          10.50995192124251   -3.02913909173117    1.74319432999656
S          10.43744890911845   -4.74372467746930    1.46803909210464
C          11.29795290567532   -2.60354026319779    2.83130375773614
C          11.41505756806484   -1.38455343063756    3.48269129063321
C          12.18234858744884   -1.44671864223691    4.63854254893631
C          12.69558134053036   -2.70869849026563    4.91595864492212
S          12.21920501631135   -3.82575390569823    3.66285334337228
C          13.42226648398787   -3.16995656061393    6.02545974951267
C          13.84919603264160   -4.47013806866071    6.12562524209512
C          14.51090233463081   -5.05648368171201    7.20156546869531
C          14.90725558646623   -6.39820927403567    7.28928339648898
C          15.53009859071589   -6.72668553960933    8.46406802858849
C          15.67447542763903   -5.64288453242095    9.35072315830802
S          14.98263246983483   -4.19297365087647    8.64805087001316
C          16.24709918293847   -5.64731507346736   10.60854613266294
C          16.82668215491476   -6.75103772228880   11.28173907101272
C          17.31193901194190   -6.46340470273606   12.51419260747308
C          17.15000446301882   -5.09665103004839   12.90815619972814
S          16.33210180188181   -4.21248505109272   11.60904499684287
C          17.53484951158217   -4.51532770514669   14.05499931872812
H           9.49339990341072   -2.79590929874596    5.55624319032940
H           9.33362028454771   -4.41900086771310    4.70611840889290
H          10.89211210946961   -2.75162209028881    7.84681964529656
H          12.11703812911008   -4.38466276907491    9.42367935961054
H          13.11852536478780   -6.33554449820252   10.48196251077380
H          13.81732246151989   -8.73224994281395   11.10508369131685
H          13.69378162981196  -11.00829862184430   10.38944417749637
H          12.98271022860702  -12.88627443792788    9.38129604671256
H          11.63658449944112  -14.37722995876678    8.12851448260115
H          10.23806401779917  -14.58116512546727    5.97616103521445
H           8.85145056369841  -14.12723778303948    4.07920847883072
H           7.86563794240258  -13.15037584474482    1.90402508041526
H           7.58758816563551  -10.89277228781097    0.73130038002672
H          13.23733938743536   -8.45946579499696    2.79713769883141
H          11.65224181535361   -7.65234785978071    2.75128614839018
H          13.20168053536989   -6.14025822250771    1.65052026489133
H          13.91281079476085   -7.46671012098133    0.68951669071919
H           7.81494746383616   -5.51151375989277   -1.00768016485615
H           8.39335995994281   -2.86555391036439   -0.83121291758792
H           9.61604420064661   -1.28830783916408    0.81183129429692
H          10.92753970426578   -0.49201860264003    3.13220975471196
H          12.36359952929749   -0.60250148445273    5.28088543431177
H          13.65458604016795   -2.46386150844814    6.81095005789978
H          13.62107024832096   -5.14172208887494    5.30556995481433
H          14.70653376318289   -7.09663053218374    6.49556279377983
H          15.89139899923689   -7.71134851915586    8.69886474948404
H          16.86619148878563   -7.72494709273121   10.82665824134404
H          17.78668655381248   -7.17150669532242   13.16987728620057
H          18.03101500059021   -5.08622958586240   14.81962416781107
H          17.36351149737281   -3.47188733197041   14.24504751008855
