82
 SCF done       -145.701918078176          0.000886885305
C           7.48387489037839   -9.93979538091359    4.95831038248700
C           7.55369425032161   -8.68012836875978    4.51034163869143
C           8.06671713186321   -7.53003830564338    5.20226249836632
C           8.00919866410303   -6.38212276135577    4.49620559684065
C           7.44761936411765   -6.52221843316305    3.19216466596178
S           6.99665746546857   -8.18962330629446    2.90177242265780
C           7.26432965396239   -5.53977512231076    2.25487735642610
C           7.58535413003166   -4.15843810526282    2.35814368701256
C           7.28704143684660   -3.43637048610199    1.25368960919640
C           6.69225640134361   -4.19295146947096    0.19733960501257
S           6.56236224103579   -5.87911152572695    0.68405855894862
C           6.36784454589780   -3.72116983673361   -1.03416305771767
C           5.74628155448083   -4.49068208861053   -2.07660698924560
C           6.16428796534263   -4.44099908630166   -3.39578921751918
C           7.20067750790201   -3.66867802971606   -3.91042888063322
N           8.05344152160668   -3.02162446935453   -4.32925872346399
S           5.28518203465758   -5.54559564005281   -4.41139426264588
C           4.29087304531632   -6.05557800877246   -3.07930193825406
C           4.65043325899498   -5.39227620379367   -1.91516513942218
C           3.93875304059565   -5.49111804401709   -0.70665423773907
N           3.35013676839450   -5.50758970316593    0.27844359061395
C           3.22185568949974   -6.99042593339407   -3.24702266864477
S           1.79762109453132   -6.83243662882891   -2.25635340918684
C           1.07139020601191   -8.21698441034866   -3.01204184116194
C           1.90979960232695   -8.77276259198804   -3.96416210786999
C           3.11717126486784   -8.06701511206818   -4.11209997492848
C           4.18026180719428   -8.53670060094078   -5.05596975692338
C           3.56303768901337   -9.37684458755991   -6.17608627664364
C           2.71338943733741   -8.57257068678156   -7.15598185344581
O           1.70960151269807   -9.02441550197796   -7.64516493582981
C           3.22370977788239   -7.19963047398578   -7.51035647365007
C           2.75520381923137  -10.51926727106093   -5.55563849231736
C           1.55639383207906   -9.97689574670868   -4.77801988207104
C          -0.22142137344463   -8.67947073397543   -2.64057777901456
C          -1.00868990552979   -8.08151326413441   -1.72408923305161
C          -2.30493953405721   -8.54821658481927   -1.32566222416232
C          -3.18799734813176   -7.73827457101266   -0.62429945237425
C          -2.97754654109989   -6.41493968035687   -0.24560486630650
N          -2.81225815637897   -5.32038107408778    0.06336860170990
S          -4.68661714048531   -8.53470086783728   -0.25792574338566
C          -4.15962526327286   -9.98873678890877   -1.06776241074606
C          -2.86022536783288   -9.84392522008130   -1.55389365492711
C          -2.09525142654852  -10.93264821953568   -1.99221887438426
N          -1.44716764726689  -11.83853725991315   -2.27619737253608
C          -5.06289579422431  -11.07427483132163   -1.11699989495839
C          -5.16689062920248  -12.05809152117438   -2.06303224240881
C          -6.11667240807815  -13.12018381179991   -2.01117411370157
C          -6.11567925518551  -13.92758690629125   -3.09994144566921
C          -5.17080328660687  -13.55412031100495   -4.08986761852664
S          -4.27494274584615  -12.13847132766467   -3.56722821101643
C          -4.92730700559631  -14.15959792177804   -5.29799573180922
C          -5.57782458592794  -15.31162341951857   -5.83142097289895
C          -5.13135388099692  -15.68643950629036   -7.04841902593683
C          -4.08722637529968  -14.85431937604909   -7.57852628934822
S          -3.71990163941653  -13.56896225577570   -6.41552417886624
C          -3.45786321927483  -14.98018381699930   -8.75371024500814
H           7.83544852098019  -10.19319996441270    5.94291816204209
H           7.07670772681779  -10.73184600807434    4.35703443591693
H           8.45415912547491   -7.62074198302757    6.20160084974876
H           8.34768057147807   -5.42780909495659    4.85880850226661
H           8.02727190801081   -3.74794050033848    3.24840617336257
H           7.45654328620726   -2.37970967494859    1.14576501216061
H           6.67399746151959   -2.71541686366878   -1.29033779175237
H           4.88566518936085   -9.16307262923680   -4.49864660769395
H           4.74666642062896   -7.70251678699097   -5.46399511265854
H           4.37687198401205   -9.79882626627010   -6.78028050914360
H           3.03806128592732   -6.52313737159012   -6.67776343984768
H           2.68941436881094   -6.82973207327111   -8.38178963937829
H           4.29163303053646   -7.21566793359134   -7.71142057887166
H           3.40529829576623  -11.08963959189737   -4.88958482451036
H           2.39605871994187  -11.18675358279405   -6.33891655298967
H           1.15196553180857  -10.75950458365654   -4.13269864080668
H           0.76970488719862   -9.69938360767884   -5.48567093090503
H          -0.56323009157776   -9.56587394612178   -3.15399117358932
H          -0.67918938970050   -7.16179025531290   -1.25527006119443
H          -5.82245492910218  -11.07782618519149   -0.34454038798934
H          -6.76227963009705  -13.24324422123076   -1.15955592374184
H          -6.76412437230432  -14.77599846885554   -3.22470832829898
H          -6.35399244904229  -15.81827692896341   -5.28603702422109
H          -5.49777225277595  -16.52924397629707   -7.60722364212078
H          -3.71281205720351  -15.77570380259932   -9.43162303474046
H          -2.68379521830873  -14.29873050751417   -9.05571544462131
