96
 SCF done       -180.791803311254          0.000921623144
C          22.83462403999878  -20.80265453801546   -0.16047384028171
C          22.65284395140017  -19.48087422941639   -0.30252925300748
C          23.19389554533207  -18.62086288503501   -1.31203408692106
C          22.82178199560891  -17.32410476586535   -1.19360777986653
C          21.96177851958683  -17.06772185977335   -0.09455873198789
S          21.64764127289896  -18.52758441794479    0.79845102216818
C          21.38150433750237  -15.85466090770367    0.24581511167670
C          21.53145545004242  -14.61065238165871   -0.38896573795169
C          20.75170781690163  -13.61992093283685    0.15183120953843
C          19.95593495853416  -14.04100418595237    1.22635153868254
S          20.24896471538827  -15.72383432693724    1.57456584736243
C          19.01839017741423  -13.27573775275487    1.92312713822238
C          18.20609937555176  -13.75835923769415    2.91651363368588
C          17.20529159253939  -13.01569483854164    3.55332321589198
C          16.31505657569737  -13.45681504565723    4.53210558399842
C          15.35919304054062  -12.52171074064950    4.87982516020353
C          15.48208909940150  -11.32277079212682    4.18484535894175
S          16.84155590034113  -11.36702952951920    3.10359029259102
C          14.63480159343252  -10.19570287657840    4.22395940665771
C          13.37013831672157  -10.07111464168938    4.77861885047106
C          12.78544346744476   -8.83976892150210    4.51560308412694
C          13.55578222317692   -7.99362817895650    3.72685905265708
S          15.09125956315899   -8.73578997990840    3.39456836445585
C          13.19031481550361   -6.67422926608598    3.33461058649465
C          13.65447015939821   -5.88889865149727    2.32630312798678
C          14.49777923402499   -6.22107326003605    1.23008766709244
C          15.21945994843798   -5.33426221092617    0.44316981238345
C          15.97982312785097   -5.94072912082062   -0.55119081854878
C          15.83756466768081   -7.31820164142895   -0.57695795025407
S          14.68916157473756   -7.83518833705407    0.62318639642726
C          16.53019027708629   -8.32217103410765   -1.28909723971199
C          17.46443428582589   -8.25228191516961   -2.31306054663615
C          17.99276345171502   -9.48603745544895   -2.65743550978900
C          17.49061598112686  -10.55073724874146   -1.90796654846918
S          16.30865229921161   -9.96976064972126   -0.77031060589481
C          17.86502001136075  -11.90110848084429   -1.97602396401832
C          17.37977759576326  -12.91143853382076   -1.18224194981950
S          16.15777369538318  -12.65978870966225    0.03244516879443
C          16.17744781028986  -14.32856047835983    0.57377523453854
C          17.10057454210433  -15.08048924861949   -0.20733639192754
C          17.77100753846808  -14.29059722934453   -1.18069236426745
C          18.72117762877144  -14.86504169595846   -2.02435601144794
C          19.00351261241344  -16.20302731986801   -1.89933827471982
F          19.94361093327998  -16.76137219656222   -2.68829468377774
C          18.33120478195574  -16.99111155737360   -0.95722437203336
F          18.62702801878863  -18.29880663761304   -0.87221907037483
C          17.38792982543864  -16.44836298850906   -0.11916508031832
C          15.31743470943812  -14.61575738909668    1.62096197159683
C          15.12539168374597  -15.78784815351557    2.32852543049392
C          14.19212824494096  -15.84550591544137    3.35610635242101
C          13.88617977009050  -16.98276603035940    4.08811933671306
C          12.91022417077404  -17.08988590417017    5.13365996280101
C          12.20701956956516  -16.06580662190715    5.73563984830842
C          11.24984807116355  -16.25288251248823    6.74987425825542
N          10.46046086462299  -16.32948651112468    7.58196948326614
C          12.35665427671936  -14.69563094560315    5.46860376679408
N          12.42338281490208  -13.55253891585416    5.34618901027722
C          12.79946779661100  -18.50207372290644    5.49913067653705
C          13.73700419767496  -19.23869332836160    4.73635534209081
C          14.46732810658871  -18.31144804229321    3.84263960931060
O          15.35828391834985  -18.61727658355433    3.07053732905013
C          13.87930493873580  -20.59830610011026    4.84854611036358
C          13.05000770776806  -21.26869660967295    5.75615156158719
C          12.11536448652864  -20.52575957785699    6.51089976119166
C          11.97516241942580  -19.14644874369861    6.39995687851760
S          11.18676784310543  -21.54960590173682    7.56596528530150
C          12.05829015678802  -22.94309229494721    6.98429004280951
C          12.99524417075266  -22.65932979616840    6.04983403906299
Br         11.64677199023876  -24.64301537050051    7.66560456856964
H          23.44970028451985  -21.34984805169901   -0.85286211161943
H          22.37225312999046  -21.35377234988763    0.63775601826322
H          23.82993408149990  -19.01065002814550   -2.08581296218937
H          23.12115098355080  -16.54281816680561   -1.86866566161006
H          22.19209669397524  -14.47001987738090   -1.22506007671000
H          20.72034871821480  -12.60683601229651   -0.20884342645810
H          18.91574131495628  -12.24108576766458    1.61998015932469
H          18.31335109356860  -14.79069602129588    3.22532151850431
H          16.37471786447015  -14.44497891351464    4.95230412261232
H          14.57535170601288  -12.69279490197222    5.59443684700867
H          12.88808571136930  -10.87038240797549    5.31146850287796
H          11.79839023850352   -8.56798935915872    4.84735244089031
H          12.42962103860858   -6.23690734097884    3.97171105619967
H          13.32376064545892   -4.85650666821568    2.32477328425445
H          15.22342822268900   -4.27447680097675    0.63052486429132
H          16.63935228620696   -5.40777980686702   -1.21211875691792
H          17.74605030074295   -7.32635090147657   -2.78190222929825
H          18.73507887680837   -9.62579324392076   -3.42370511251298
H          18.61640755635630  -12.14981562929595   -2.71259416463295
H          19.24310703013039  -14.28359791527147   -2.76619533689507
H          16.89711083176332  -17.09206260769793    0.58936823601913
H          14.71035881457450  -13.77167184875090    1.93603851909721
H          15.68664633543096  -16.67801193210091    2.10517713053698
H          13.64563501427265  -14.93694918566269    3.57788207141153
H          14.60443476336590  -21.13154404594843    4.25375244509273
H          11.24443853409441  -18.62750689892231    6.99720528187223
H          13.62210767541932  -23.39781451175298    5.58431566187418
