91
 SCF done       -166.863967164849          0.000548774329
C          18.88104273318576  -11.80687812358429  -19.92207102184821
C          19.32152022806391  -11.55428277426590  -18.67742883729849
C          20.56656154906156  -10.97515792709203  -18.28195509771215
C          20.71967117528065  -10.84718123280227  -16.93769502619996
C          19.62010908946868  -11.30935195090415  -16.18062124322651
S          18.36753715555846  -11.92196824280743  -17.23188941675017
C          19.48467214552941  -11.30216573736686  -14.79574744929412
C          20.39805251431957  -10.84303242046999  -13.83810371668156
C          19.94836728269492  -10.96970649514449  -12.54310687807624
C          18.67413697685380  -11.52873699952889  -12.43292788787065
S          18.04035910539428  -11.90474692322682  -14.01647657053002
C          17.95132591303835  -11.76052424171721  -11.25344850649826
C          16.69724625710853  -12.29740028794707  -11.20957247929201
C          15.94335386607763  -12.49807362878631  -10.04036142226255
C          14.65261654323893  -13.00952646330248   -9.96248012377069
C          14.14499859604576  -13.05547071944788   -8.67597947349043
C          15.02999625728797  -12.58552377574310   -7.71357347188209
S          16.52766355593203  -12.08457245889235   -8.44869270920663
C          14.80967491404763  -12.47341720765368   -6.32441979628657
C          13.62756625982146  -12.73616367965614   -5.63613670177942
C          13.70223127882699  -12.48571159423084   -4.28010081076203
C          14.94688377998783  -12.02866340937621   -3.85667513989056
S          16.03996833892022  -11.93019257730309   -5.23034237989079
C          15.47561825187246  -11.69027149571640   -2.60541139382113
C          14.90434371626775  -11.48411051991542   -1.36310539699412
C          15.80716603728953  -11.21181237570503   -0.26450424425788
C          15.35372985550162  -10.90546004650673    1.05697119738781
N          16.23280642165465  -10.70671842100131    2.03781555774726
C          17.52754912332629  -10.77664613460625    1.77410922313941
C          17.97886149134129  -11.03958683337003    0.45843640434385
N          17.11425862622223  -11.25710333709712   -0.51882702965798
C          19.36366674942646  -11.07643127589455    0.16605545488424
N          20.49100363752283  -11.09700918307482   -0.03924857185316
C          18.45011318711779  -10.57926253469797    2.82949765930777
N          19.21950962329434  -10.42116666131036    3.66433322425562
C          13.95375907572653  -10.78231750093735    1.38160367698577
C          13.06461068687356  -11.06911145707177    0.30262909962074
C          13.51448374254948  -11.43776500610625   -1.01659248358956
N          12.49509088918314  -11.67303911165705   -1.82502765257303
S          11.09764832526308  -11.45669038142980   -1.03645774171244
N          11.74810969170364  -11.05122771603632    0.39075029934400
C          13.60447315705323  -10.41439787091022    2.66616351849647
C          12.37528671826307  -10.12965381340608    3.26720974875696
C          12.26783407047069   -9.74457394062297    4.60943668806245
C          10.98712765951514   -9.43614369784756    5.01490997962015
C          10.05274251765886   -9.56654364431588    3.99096037976883
S          10.79882814386987  -10.11351067147629    2.51922207155330
C           8.66898954297803   -9.29750958113390    4.04009607088692
C           7.90542987221597   -8.86986688237127    5.11840923432288
C           6.57003051247144   -8.67343088224658    4.80759472034976
C           6.25628413110340   -8.93996470887198    3.47964763951590
S           7.68169339652611   -9.45878532438483    2.61447942044051
C           5.00127930222825   -8.81048338029012    2.85802829167284
C           4.76423588355877   -9.07146673672462    1.53930751323016
C           3.52888610073658   -8.91910831271250    0.89352459003478
C           3.25876209944703   -9.16490865004937   -0.45400085169766
C           1.95746568522975   -8.91145469003098   -0.82341251545571
C           1.15485986352818   -8.45507954679442    0.23006371382621
S           2.08865749300899   -8.35781857749493    1.70600368866973
C          -0.19121301608711   -8.10481732681523    0.18991235574843
C          -1.04547759781138   -8.12489004935827   -0.93542659620575
C          -2.31805838596626   -7.72310975691588   -0.67934815141382
C          -2.55396424281556   -7.35657856436778    0.68145278352236
S          -1.05563798929448   -7.55582564659419    1.60425978922004
C          -3.69869894164756   -6.92401384844719    1.23764073026104
H          19.48865460168508  -11.56954074101750  -20.77705656857616
H          17.91861523860875  -12.24916361879476  -20.10165564749670
H          21.29501608507022  -10.67775287441005  -19.01469248210106
H          21.59262400543467  -10.43178727642094  -16.46651776684389
H          21.35457310795025  -10.43156456091081  -14.10442453717842
H          20.51203226592466  -10.66829858996675  -11.67778754031952
H          18.43532221149707  -11.47669969737462  -10.32728545720714
H          16.21967235765366  -12.58439355473508  -12.13834843600979
H          14.11119565517084  -13.32988451874181  -10.83485364675843
H          13.16341211363261  -13.41978482401694   -8.43321837035496
H          12.73972502685677  -13.09219679012307   -6.12652752991366
H          12.88855755060451  -12.62406935271157   -3.59470838408576
H          16.55112287473717  -11.54806828491317   -2.60365574016659
H          14.45441114235046  -10.29848782577713    3.33032364869483
H          13.12902432137917   -9.69375225756802    5.25252135927360
H          10.73113928076173   -9.11945135586887    6.00990462043238
H           8.32265812023747   -8.70860646693604    6.09593012573748
H           5.83087215772814   -8.34100177576428    5.51485629002991
H           4.18540326333054   -8.46960930137083    3.48300567813205
H           5.58453026021842   -9.41668508833243    0.92185941806320
H           4.01811991074780   -9.51956523227890   -1.12855584930645
H           1.57928008067447   -9.04532813846532   -1.82053917241017
H          -0.69406463526860   -8.43438463206997   -1.90362666039544
H          -3.10518522686745   -7.67174586115470   -1.41000250924925
H          -4.58898278845513   -6.81579095669312    0.64404947951409
H          -3.76167960579664   -6.67535145573299    2.28085974305742
