85
 SCF done       -153.234116414590          0.000450824193
C          -4.06542664445956   -7.38437697917108    0.21039927360609
C          -2.81066991698143   -6.91664396322676    0.32120226871460
C          -2.38601316308455   -5.56119099319608    0.48376532571930
C          -1.03932279373935   -5.40427390878366    0.56098589834280
C          -0.30588698861078   -6.60946524444909    0.46620531656846
S          -1.38731982978313   -7.96913584581237    0.27950524920422
C           1.07510550955193   -6.75996015673346    0.49206158952985
C           2.05280310969645   -5.76255768078151    0.62057853178696
C           3.33994036461324   -6.24342527407041    0.57628219939546
C           3.42893650823052   -7.62911999447467    0.41390591754312
S           1.82974856674299   -8.32964933137033    0.32937492604823
C           4.59703917976426   -8.38931218534896    0.28395712166112
C           4.62066904517272   -9.74462694495328    0.10055297376036
C           5.77067351269376  -10.51049365292164   -0.13690971671013
C           5.81771771124129  -11.87849084946475   -0.39385382610518
C           7.08074073088929  -12.35063407296861   -0.69372461680758
C           8.06299813075031  -11.36466930659836   -0.67228248944557
S           7.37370935357384   -9.82266209967593   -0.23997093982990
C           9.41803511822956  -11.50341876048509   -1.02536334220745
C          10.02671004639468  -12.60836301472733   -1.61365744168543
C          11.34460161004961  -12.39425416983622   -1.96417062152864
C          11.82285342375279  -11.12443528343290   -1.64217434972064
S          10.55939570433738  -10.19561134381120   -0.86479861229942
C          13.08829318393926  -10.62916724084683   -1.97942298188961
C          13.67628594514954   -9.44036802855212   -1.62629633302258
C          14.88280662767456   -8.91170104235194   -2.14936449422881
C          15.15521201315664   -7.68408462142550   -1.54823015236653
C          14.08118119883565   -7.39743777257789   -0.60159135826640
O          13.87693636282423   -6.44976220979218    0.12812769156399
N          13.23881721688258   -8.49584344777296   -0.71195621751383
C          16.26304131904199   -7.11932188384876   -2.21976433419025
O          16.63959525585198   -7.99570571929483   -3.21935478919074
C          15.84628795026213   -9.12530430307698   -3.20809790445608
O          16.01177719214158  -10.03796167618628   -3.97555783498719
C          16.92666146091035   -5.92478935426664   -2.12525488051952
C          16.90953709617913   -5.01807128339496   -1.05419602600466
C          17.40975036106089   -3.71453562067594   -1.09763753852903
C          17.41666471684443   -3.08037785204592    0.12568580925332
C          16.96180993975185   -3.89234038782272    1.16549948113856
S          16.43800420334632   -5.43622694134203    0.56611904988388
C          16.99375861649362   -3.58758595532266    2.54155826978802
C          17.32150524963133   -2.36961348060275    3.13050244108546
C          17.38609511378390   -2.42170545930823    4.50960493461612
C          17.12033231438142   -3.68242294094808    5.03862075288677
S          16.73576312114741   -4.80667289212684    3.75643562514981
C          17.21587768470491   -4.05520178186265    6.38752525400444
C          17.00930456788111   -5.31544996575550    6.87645511448230
C          17.22130719097459   -5.69055440807982    8.20892614721763
C          17.04633548825068   -6.96143379558131    8.76433292773959
C          17.39001971680440   -7.04848531619598   10.09286029213919
C          17.85356654696907   -5.84050462770851   10.63369183251362
S          17.82498868001377   -4.58287238021423    9.41801540554218
C          18.30985214186731   -5.59581956035495   11.92335550647170
C          18.40981059246881   -6.52057928480360   12.98841022136081
C          18.91846044192136   -6.00029277522272   14.13518902706488
C          19.25677965433175   -4.61375258375365   14.05097784898879
S          18.88060270346526   -4.02271456001819   12.42473868018431
C          19.78082524914142   -3.82875772452678   15.00738909264593
H          -4.90495549118485   -6.71285401464583    0.24102773604497
H          -4.26966308980440   -8.43244830192314    0.09157649266661
H          -3.10228319108827   -4.76074196794737    0.53358871169019
H          -0.54803481479184   -4.45500060197677    0.68049366791862
H           1.80288648042367   -4.72354442283840    0.73615335324994
H           4.21720312998039   -5.62520635152758    0.65200877008294
H           5.53329215568624   -7.84548657559465    0.30664539471663
H           3.68150050150271  -10.28437053544931    0.09789444205375
H           4.93503596698961  -12.49272612108207   -0.37173227229119
H           7.29694986331118  -13.37774069946698   -0.92527763632135
H           9.49891136202190  -13.52537744613658   -1.80215045988917
H          11.96519889402932  -13.12591419823391   -2.44970692022406
H          13.67804319769187  -11.25407755374463   -2.63687897262944
H          12.39654637281109   -8.58215520213478   -0.16463340235898
H          17.57693935707901   -5.67763180460099   -2.95448239468115
H          17.74864511545692   -3.26448527012609   -2.01387933017624
H          17.77060540670588   -2.07756681234601    0.28093594720422
H          17.50585592198518   -1.48018939741794    2.55601871047773
H          17.63409555143914   -1.58130606372133    5.13354189865200
H          17.51492795471665   -3.27458368077191    7.07665189209180
H          16.68480989917933   -6.09499040075175    6.19888144465120
H          16.67875281628617   -7.78762072990619    8.18150495274710
H          17.32211860897582   -7.95047415346197   10.67361759650840
H          18.10481417071589   -7.54551067832130   12.87373653943257
H          19.07078466743621   -6.55121098857643   15.04596472676772
H          19.99882942541430   -4.22520984053024   15.98313132932764
H          19.99938436005844   -2.79181625254343   14.83045058626236
