78
 SCF done       -134.907420039757          0.000292444635
C          11.09931840544259   -2.52712444468141   -5.36527073042716
C          10.84969408269693   -2.59777856806820   -4.05014535168872
C          11.70743475800247   -2.21563850074050   -2.96782371157955
C          11.19127765121194   -2.43216244049505   -1.73564333820342
C           9.89086572814654   -3.00203432687973   -1.73476391781112
S           9.33213150523556   -3.22431071072464   -3.38630637542996
C           9.13600904309470   -3.38823684795579   -0.65085380365355
C           9.45776140244758   -3.32736289117758    0.72469839886945
C           8.50212179531094   -3.85108724386003    1.54160170891356
C           7.35898174189177   -4.35965952335505    0.87610369016399
S           7.55189472710138   -4.11516849454165   -0.85452474153539
C           6.28203010543546   -4.96088257198356    1.48599740146714
C           5.14031067129849   -5.49266260687282    0.87332777364005
S           3.88563163691653   -6.24031357297266    1.88894732118261
C           2.91815400564734   -6.59022531863453    0.49642229927211
C           3.57271260505130   -6.13538722658676   -0.67457822792478
C           4.80143329242323   -5.53228868662930   -0.47384979220536
N           2.77079204670241   -6.40838871923945   -1.72781174160262
C           1.62288339487044   -7.02894183949806   -1.28497304056411
C           1.71225497434573   -7.15827806030917    0.11886476595422
C           0.56898333715772   -7.40678633319572   -2.13570370970207
C           0.43345617709476   -7.05297686472328   -3.46235455528761
C          -0.55237453060771   -7.46491384422696   -4.38840488539781
C          -0.42518615418936   -6.93373068818764   -5.64611742267157
C           0.66047415712015   -6.05465915097554   -5.78958422319838
S           1.50808232219500   -5.91785999936686   -4.26621654906736
C           1.17786668313472   -5.32682448367961   -6.85102579567308
C           0.84500671461125   -5.24060753157487   -8.21266665505310
C           1.67536649767509   -4.42228057090186   -8.93264933199759
C           2.70466562805051   -3.80828321506242   -8.18251200225031
S           2.56135054036206   -4.30797176125510   -6.51220078162957
C           3.70809697514832   -2.98277320845210   -8.64549404501088
C           4.71393221352135   -2.37896441228727   -7.87960212211359
S           6.03470651553453   -1.54000459448208   -8.72333712793209
C           6.79133396954429   -1.15155954738180   -7.21880896678722
C           6.02223857835581   -1.64197279304963   -6.13435567972143
C           4.87271226818341   -2.32352537051347   -6.49674853996214
N           6.65147067907605   -1.27531284659091   -4.99159777495908
C           7.81040854531454   -0.59398695489257   -5.30629222752406
C           7.90599862820953   -0.50730584333527   -6.70827782841639
C           8.63581141546657   -0.11269105274474   -4.27753881310093
C           9.88827906690854    0.43419881823727   -4.38132272043492
C          10.68922738624092    0.86439906573578   -3.29307940371322
C          11.93459918334305    1.28570660122035   -3.63928102606673
C          12.19819217124806    1.21332904538634   -5.02816479041709
S          10.78175027578219    0.61739909402946   -5.87719952809708
C          13.36375127146490    1.52382232407777   -5.68757946052870
C          14.57306583757099    2.01565850073566   -5.12462031294711
C          15.56504780485459    2.21866452837386   -6.02057029026697
C          15.21583809976534    1.90005075827243   -7.37484755875368
S          13.54009511411227    1.32806301378684   -7.42209999986843
C          15.98762495238770    1.99568808616251   -8.46647100501845
H          12.04231360958906   -2.15578439213213   -5.72492354677066
H          10.37430857251349   -2.83179842054246   -6.09716747384855
H          12.67962494190640   -1.79835893503028   -3.16294574434491
H          11.70342529615214   -2.20923239845114   -0.81597241685750
H          10.38651046494061   -2.91096923492781    1.07198888622854
H           8.58371308146438   -3.89788661085495    2.61366447015679
H           6.32756237306273   -5.03503724421367    2.56487629737311
H           5.41595847465260   -5.13881947918349   -1.25941099493632
H           3.02896438108366   -6.27708433207432   -2.69007668577521
H           0.96569005293528   -7.59495814691972    0.75102903429090
H          -0.21164799604168   -8.01419412476660   -1.70071856594228
H          -1.32604803640091   -8.15771929512922   -4.10624946644001
H          -1.08822486671762   -7.15482410342965   -6.46409324180066
H           0.02005558184458   -5.78790517937771   -8.63396681675025
H           1.57792922473878   -4.24774951566150   -9.99014744722582
H           3.73567088537810   -2.80351088437110   -9.71217845162432
H           4.17383706059619   -2.73120203864715   -5.79366586138296
H           6.38497621985785   -1.53976683327645   -4.05842905078810
H           8.68256733593161   -0.01786192384588   -7.25870440941583
H           8.24813955676946   -0.22147135850356   -3.27155002963843
H          10.31588253503928    0.83508165335812   -2.28409837266778
H          12.67228379131730    1.63318923181367   -2.93840769977040
H          14.66196374837206    2.20363763945029   -4.06905202318624
H          16.54675224614063    2.58648754816598   -5.77979294029426
H          17.00178281893968    2.34647695391661   -8.39227056197091
H          15.62415274803798    1.72770525071067   -9.44135033989460
