88
 SCF done       -170.803498490277          0.000470472731
C           2.91109816299772   -1.99081859125423   -7.05012508152714
C           3.61680494001071   -1.97822898031921   -5.91293817434554
C           4.41408878456003   -0.90559052330816   -5.38594449607430
C           5.03258189717321   -1.18795467537193   -4.22082218339784
C           4.77472280382925   -2.50061658257293   -3.72528746925358
S           3.70083164273359   -3.36184455255611   -4.80632087842377
C           5.27285183793003   -3.05934835672655   -2.57500017737874
C           6.16803477340153   -2.48715215458957   -1.63505996596938
C           6.48249451905971   -3.30456994101770   -0.60033097432932
C           5.86248201890351   -4.58792373963693   -0.64584998446335
S           4.84142591302080   -4.68698271595743   -2.07514410011080
C           5.96403093142915   -5.53889303219184    0.32809125641429
C           5.35486893273451   -6.82242788532207    0.38251868843481
S           4.71551426371056   -7.32087413872162    1.93141775133614
C           4.07411760464431   -8.77498767846663    1.23607551348114
C           4.40598302780756   -8.89199257225779   -0.10687701547849
C           5.14351830846673   -7.79856201514231   -0.58370139165284
C           5.78751291827487   -7.81502995082492   -1.93826727637941
C           5.12063603679857   -8.82008900889116   -2.88173795294444
C           3.80885253643829   -8.25083097649932   -3.41204582303374
F           3.01012798558812   -7.73756322328232   -2.47049644296136
F           4.02927312551386   -7.26408765059177   -4.29736446237316
F           3.08073368468392   -9.17593109801020   -4.06351457178425
C           4.92143089723352  -10.17012383389298   -2.19077485689427
C           4.01970208183813  -10.05408636293322   -0.96442924370648
C           3.30907537607949   -9.66193550689990    2.02872539914279
O           2.59240145637097  -10.65064071820223    1.43201665829463
C           3.11495651966606   -9.75017598423239    3.39504426044668
C           3.46395712192712   -9.14900317691487    4.67868471083888
O           4.15698481170204   -8.20197119636600    4.95357306724993
N           2.78744467899763   -9.94423582542761    5.60446677733197
C           2.03851992959657  -10.98848739346368    5.06160220454264
O           1.39091027035531  -11.77885046586237    5.70069225060642
C           2.25644157248021  -10.85587890767013    3.62207075053052
C           1.93998058023834  -11.38830271477544    2.38409154214524
C           1.11924740198341  -12.45845048925282    1.97189938421849
C           0.83820177999320  -12.65671088833151    0.64857845032273
C           0.07936988516264  -13.69989045068191    0.10923458061243
C          -0.22646800282887  -13.77524327428290   -1.23106408440005
C          -0.89117735366655  -14.82110943915120   -1.91199732441302
C          -1.02911297090289  -14.61802444899695   -3.25320355997693
C          -0.50973414543452  -13.38359296948213   -3.70230769388965
S           0.19031255461514  -12.50026607044014   -2.36730685498856
C          -0.52121354915879  -12.86963518511347   -4.98640735445719
C          -0.91595181675229  -13.52888336550017   -6.17253660847079
C          -0.78020825623774  -12.76885619946652   -7.29330459294540
C          -0.29933627771972  -11.45739028684776   -7.04808169223941
S          -0.00516621505296  -11.23236835266195   -5.33758619282469
C          -0.08083328635819  -10.48174696299510   -7.98748958030589
C           0.31348923960514   -9.16751507846722   -7.69021243684467
O           0.42795089941257   -8.74510414152093   -6.39871155187847
C           0.60706068183796   -8.09606869799692   -8.52094958714794
C           0.70219439673544   -7.66862430788426   -9.90899293036729
O           0.53015461409256   -8.25878252382299  -10.94634990856481
N           1.05755011246662   -6.31761462472261   -9.81078097377982
C           1.19378350012925   -5.83191478562277   -8.51651945873944
O           1.47655351857121   -4.69364796592579   -8.23317829739516
C           0.90656774704879   -6.99531798692252   -7.67633231350217
C           0.77755574238005   -7.43246710399609   -6.37639632489776
C           0.90057581423032   -6.72449271823101   -5.13561982414044
C           0.57108773268568   -7.25246137837521   -3.95744765809606
H           2.89433609762020   -1.12223034925837   -7.68621984629634
H           2.35477602871421   -2.85305673305118   -7.36947438093154
H           4.48887090766537    0.02985427336773   -5.91217651092703
H           5.66903473537530   -0.50389677374681   -3.68795218950978
H           6.55185186569213   -1.48998915150936   -1.75515502604286
H           7.14455633853335   -3.04111051236742    0.20546185149075
H           6.46354592945776   -5.22940687887016    1.23818703422494
H           6.83660457805404   -8.10158506750190   -1.81404750327536
H           5.77724950309983   -6.82594962912842   -2.39530215408994
H           5.75072430022821   -8.95530470972721   -3.76797168246918
H           5.90506309992855  -10.53306162046868   -1.88690333627424
H           4.49519600878587  -10.89025904887175   -2.89095253170626
H           4.07060366222343  -10.97889446175967   -0.38780412564044
H           2.97761755535391   -9.93047902999964   -1.27386478837785
H           2.83061090921480   -9.77234993328021    6.59848260226551
H           0.71113315807352  -13.08879891222308    2.74650489321750
H           1.23767211251262  -11.93789166599479   -0.05668606206529
H          -0.27262136515245  -14.48999485957126    0.75810660206217
H          -1.23652474795416  -15.69667453978726   -1.39104084351038
H          -1.50480449432340  -15.31117787693692   -3.92341868431946
H          -1.26689393864074  -14.54527947993172   -6.16993723013997
H          -1.01555990771812  -13.09787498142568   -8.28965827381040
H          -0.22732343191652  -10.70946457728251   -9.03218449249779
H           1.19515561276007   -5.73659061378672  -10.62514813239969
H           1.26362546853498   -5.71115596272337   -5.22919465914666
H           0.21816950633070   -8.26780872440728   -3.88106008483569
H           0.66205481467448   -6.69047635325007   -3.04542436462246
