78
 SCF done       -149.601138616157          0.000251950692
C          -3.32848418073586   -1.29035563018151    2.70439901570592
C          -2.49365298915873   -1.58014197119956    1.69791072360429
C          -2.26218828523910   -0.82141224263811    0.50139214084118
C          -1.35707078754094   -1.36640681771875   -0.33959213038712
C          -0.79788843486443   -2.59506960082287    0.11496088391941
S          -1.47662368639113   -3.03007908225217    1.67091685493688
C           0.13387348415770   -3.37387205566302   -0.52581542153308
C           0.75329147465007   -3.13819886603302   -1.77985809312759
C           1.63011719087763   -4.10426804086740   -2.15485847221290
C           1.76470396890651   -5.16930442677655   -1.22463809610248
S           0.72141736327727   -4.87749013653470    0.16158210849362
C           2.55937395420559   -6.27472153951296   -1.35138646165979
C           2.63879769546252   -7.29908416556864   -0.39058439876544
N           3.38017189880105   -8.33548936244544   -0.58947861696892
N           3.42989848363762   -9.28068228619578    0.33523719387873
C           4.15087343301907  -10.42867040079520    0.16815609245727
C           4.88294920959026  -10.65296849646056   -1.00679403048248
C           5.58610262865098  -11.81869530862960   -1.17208727057883
C           5.58286027634088  -12.79915501764306   -0.16605126889928
C           4.85974697624122  -12.56477926422968    1.01351853825742
C           4.15433485753068  -11.39941497675317    1.17901009662754
C           6.29476276238492  -14.02709125365682   -0.34976443713351
O           6.28173213993557  -14.96828950363003    0.62938745913255
C           7.04316998852594  -14.51340937733176   -1.40943799743474
C           7.54626298268997  -14.22435883678866   -2.75351812750499
O           7.42151279619004  -13.25788743904650   -3.46272113878754
N           8.25986164417630  -15.37178906291094   -3.09669291787410
C           8.27925782648344  -16.37352717348931   -2.12988937538890
O           8.83678751094272  -17.43480911078153   -2.23795138467474
C           7.48654422716897  -15.80591001034607   -1.03638205707316
C           6.99797462455557  -16.05823989219289    0.23137771894552
C           7.13671130781695  -17.19707494326743    1.05775031240347
C           6.61167983122408  -17.28832341989396    2.30990438906969
C           6.70856891430913  -18.40566712733899    3.15661572879260
C           7.23616893454613  -19.64808370389863    3.00615055804294
C           7.11406901007669  -20.52750174363479    4.11977025870599
C           6.48513162918993  -20.03309036536604    5.21646620088950
S           6.01078937478234  -18.33050043133007    4.82573247163444
O           6.73175320976034  -17.39454866306761    5.64549953137746
O           4.58047440621630  -18.18840852853791    4.78007401648850
C           6.18067303841698  -20.57313740024130    6.47973337133174
C           6.42752420229325  -21.84974520416734    6.87422189179536
C           6.10508289845370  -22.34868822583300    8.16116147936453
O           5.54610050802563  -21.55376299639718    9.11440543181322
C           6.26417431105559  -23.61345231335682    8.69566359718332
C           6.73557225698470  -24.97144389891891    8.41610215951779
O           7.22033796728287  -25.45600568097870    7.42697615905782
N           6.49682649526974  -25.65143035367303    9.61014696271419
C           5.92594773691994  -24.89240812393173   10.63067322507374
O           5.64882842066024  -25.30236517932025   11.72653012828875
C           5.77646040638683  -23.56359337438402   10.02621750945426
C           5.34366754012346  -22.27436560630029   10.24622770251140
C           4.76813120995097  -21.67298560796372   11.41578080768208
C           4.40228345640589  -20.39426065880846   11.48657279093085
H          -3.92837569214071   -0.39777443975202    2.68033824158130
H          -3.42597726067539   -1.93167215643862    3.56101332421882
H          -2.78826690082115    0.10043299655980    0.32731568042169
H          -1.06449760020453   -0.93306281888627   -1.27952951088123
H           0.53024181243648   -2.26380138629546   -2.36452003243307
H           2.19143326990976   -4.09703681793858   -3.07245186023621
H           3.16046662289132   -6.38346476391203   -2.24183923144637
H           2.04708242695477   -7.19001223632538    0.52711558687813
H           2.89102147790452   -9.17162363444297    1.19992280193961
H           4.87164795093181   -9.89244109959852   -1.76997914820897
H           6.14262636368809  -11.99023320596377   -2.07979065002086
H           4.85969714887112  -13.31471644567588    1.78903029792413
H           3.59502601413834  -11.22652638172900    2.08728549243564
H           8.72922566205413  -15.46693101983990   -3.98598812705589
H           7.70077590003450  -18.00903467595709    0.62394070742200
H           6.06990356641183  -16.44527288550063    2.71729204689115
H           7.72194942466747  -19.98303983422595    2.10330305319982
H           7.51360814235088  -21.52799219424580    4.06406749345826
H           5.70422063869808  -19.89004932603282    7.17030353235286
H           6.88651194711423  -22.56662829491937    6.21026884385601
H           6.72242633795675  -26.62902289156717    9.72790615924857
H           4.65428528623747  -22.34929255796736   12.25073700242194
H           4.52251779909309  -19.72997612428939   10.64751560773918
H           3.97553156082765  -19.98119290536886   12.38307887402822
