83
 SCF done       -143.736679597471          0.000304171372
C           4.21258155542809  -12.74277885618599   15.61449101108989
C           4.80898199189089  -11.93337729610458   14.72411594451051
C           5.37678762499036  -10.63992988434405   14.95068640438355
C           5.91840857806969  -10.06724751674083   13.84641669867192
C           5.82333016459603  -10.85468219439628   12.67406418842856
S           5.00803263813247  -12.36324021335096   13.01799041307521
C           6.30213007196602  -10.54396935445397   11.41081565068171
C           6.99012499420609   -9.38757987174816   11.00524525487210
C           7.36307895924211   -9.40263144985068    9.68537833742255
C           6.98540506328187  -10.56129582037385    8.99365717450393
S           6.12328352335873  -11.64529916657373   10.06249060759247
C           7.27093980775917  -10.87270296132602    7.66492220524433
C           6.88991657072630  -12.03022406880782    7.03319147609277
C           7.26907238174256  -12.39176493727558    5.73844109422695
C           6.95195773383003  -13.57721843027263    5.07000721371386
C           7.55418559485148  -13.70541339220812    3.83822927933639
C           8.36335564562762  -12.61957523918243    3.49526371635426
S           8.32332033412177  -11.40747304457263    4.74981140525717
C           9.19677510459714  -12.48677890882356    2.37878452791912
C           9.49283737040816  -13.45645546225813    1.41507933702043
C          10.47269889536457  -13.07352098293335    0.53234989388158
C          10.97088847428568  -11.77912960581066    0.75075837778657
S          10.13258833929495  -11.04092264402824    2.09886971714695
C          12.04956627654061  -11.21083222561481    0.08833123608136
C          12.53791481830528   -9.91655389694859    0.20906886142004
S          14.14476045808066   -9.54486329405003   -0.40724015953799
C          14.00968972876464   -7.85970377840880    0.04425558262924
C          12.72693563674314   -7.61976200525524    0.61899791445919
C          11.95130494047562   -8.76437320758935    0.73080182566481
C          12.25135820818726   -6.32547969453052    1.07137225362537
O          11.17013948446315   -6.12382860438480    1.57450928633214
C          15.03914796196971   -6.95982134783427   -0.13337874978951
C          16.36144488553990   -7.25190232655816   -0.46989031887402
C          17.39622010473300   -6.32273615387642   -0.63356099764664
C          18.63859164571173   -6.88866655513163   -0.81695377814417
C          18.62270539642041   -8.28347130672478   -0.79431030086294
S          16.99195626128264   -8.87458355324990   -0.59915584687549
C          19.70653057961706   -9.17301402238997   -0.81740500004464
C          21.06417079603812   -8.89125781330152   -0.96592292419217
C          21.87576439014143   -9.99928171277553   -0.83370249410755
C          21.18444874240663  -11.18351422300493   -0.57468671716080
S          19.46293957949193  -10.87615912492315   -0.53566626930575
C          21.72556493792914  -12.44585445545156   -0.30977876087911
C          20.97898296581344  -13.55773054388916   -0.01439471646032
C          21.49401084557627  -14.80286455231305    0.34824687541898
C          20.75545759181079  -15.94765667551317    0.67382606515495
C          21.51982841046963  -17.02547350842741    1.04363671365023
C          22.90087379408574  -16.77006191568363    1.02541163724164
S          23.20509184934325  -15.12504612838344    0.50931013702407
C          23.93135482055908  -17.63218755527810    1.36939540281409
C          23.81583713844066  -18.97038362912577    1.81523643922441
C          24.99948528474160  -19.56964835103366    2.10028203708630
C          26.14414712556061  -18.73643139787718    1.89667595143937
S          25.61127821722494  -17.15033681152482    1.31673603785199
C          27.43652458895513  -19.04292739237219    2.09615765081003
H           4.11331763551338  -12.44661627402376   16.64363963086846
H           3.82137457617869  -13.70268770965120   15.33224182290271
H           5.35811568302215  -10.19354439427171   15.92877849621760
H           6.38837092098030   -9.09983194866737   13.83629242454852
H           7.20179497690991   -8.57926260268953   11.68149065025934
H           7.90338989239748   -8.60836891547437    9.20087126403943
H           7.85715974239147  -10.14818833800841    7.11325091816259
H           6.27944851400517  -12.74185027100290    7.57517279832738
H           6.30501017303987  -14.31818120314366    5.50552925805199
H           7.42919360778633  -14.55668593728287    3.19367595272786
H           9.01489336179028  -14.41926103087819    1.40228205454619
H          10.84987051675569  -13.69604337674118   -0.25967695093135
H          12.60016243113936  -11.87482819629108   -0.56615272195770
H          10.95998876699558   -8.73965721796570    1.14715041769905
H          12.96250817086966   -5.49040425295423    0.92066046341935
H          14.82912081470693   -5.91600979224801    0.05828623577210
H          17.21691318639040   -5.26252923800613   -0.59795373316414
H          19.54499869247221   -6.32261096932529   -0.93551937501220
H          21.42866211381248   -7.89799357271310   -1.15673472123263
H          22.94884033520591   -9.97183735667044   -0.90532698212026
H          22.80544792445102  -12.52446495486650   -0.31202439425226
H          19.89913849309571  -13.47492081606631   -0.03732214967280
H          19.68026720176420  -15.95451375921253    0.63518844519842
H          21.11620959955646  -17.98000143490887    1.32900863953121
H          22.85764308395993  -19.44899969533846    1.91393935020470
H          25.10827550721487  -20.57967148689543    2.45294106783323
H          27.71957238174875  -20.01787989930661    2.45127396857998
H          28.22112281306682  -18.33299629066632    1.91039236626890
