92
 SCF done       -172.118030622913          0.000234717548
C          -2.25910670811656   -5.52931084079399   -6.96743918732142
C          -1.12036049209428   -5.30123059418835   -6.29421193082585
C          -0.78506763665788   -4.16617877891228   -5.48904032746196
C           0.44959708487328   -4.22336123472344   -4.93201019264436
C           1.17962069979703   -5.39567221218569   -5.25030733886198
S           0.23875153075358   -6.43679650107131   -6.29108575371517
C           2.45852426392609   -5.72595750456340   -4.83197130814917
C           3.31642602053772   -4.98271908415833   -4.00165766227042
C           4.52697149722199   -5.58579369130912   -3.78047305798214
C           4.67910827282581   -6.82402971561224   -4.42228962930678
S           3.23322155045115   -7.21752016837292   -5.32200491668678
C           5.80428943911583   -7.64557135629751   -4.38683302192687
C           5.92189525342228   -8.84603883597475   -5.04341355376676
C           7.06730944629762   -9.64458111127374   -5.03062921919409
C           7.25760366092357  -10.85278866479653   -5.70910702766855
C           8.51127086912145  -11.39531100227312   -5.54103171689366
C           9.34638156284681  -10.62985701068335   -4.72110681944431
S           8.51550385514305   -9.21146706982236   -4.15055684565866
C          10.68390339307672  -10.87206258466932   -4.38154251558850
C          11.51460522531601  -11.89702455238087   -4.85219531675148
C          12.79437243761255  -11.81442984467980   -4.36727369347785
C          13.01792617075102  -10.71395010704611   -3.51815574487105
S          11.55345443979366   -9.80092461454151   -3.31988101426215
C          14.23377238169436  -10.47471445630434   -2.87771059218293
C          14.65209901950078   -9.41193391346032   -2.10421865581871
C          14.16517352444691   -8.12454107979314   -1.84294541978030
C          14.91817458006078   -7.39279587381928   -0.89857035031007
C          16.07963985282307   -8.03520246157855   -0.36958872713121
O          16.89543038774797   -7.65132538404306    0.43317277128158
S          16.15696484667002   -9.64964512060270   -1.17421090579249
C          14.32648078423646   -6.13353773632004   -0.74393342389610
O          13.24716217132473   -6.06066079547982   -1.57890590484750
C          13.14107131667551   -7.22849766868444   -2.32511764537616
O          12.33207606653465   -7.31095435471106   -3.21771115713578
C          14.69544825602856   -5.05902486669552    0.05632309005973
S          16.15145851326555   -5.12027103850840    1.00468209897953
C          15.93287848145277   -3.49492329982238    1.59436186019114
C          14.72995290227553   -2.93623563395251    1.09240653531805
C          14.03360339606652   -3.81328202347811    0.21830652146215
C          12.82607142928108   -3.41581498873371   -0.36946720852245
C          12.33454003228014   -2.16842851922723   -0.08207991072554
F          11.17466163879874   -1.76502960836322   -0.62782106616969
C          13.02182668362777   -1.29699808614156    0.78058586647639
F          12.50580034779057   -0.08134959832327    1.03778606592318
C          14.20563476241642   -1.66531526244065    1.36444057256790
C          16.87412621753060   -2.87291843310384    2.41368968194700
C          18.06104923873978   -3.45677066782563    2.79290623484982
C          19.06000270457862   -2.84219606647273    3.55316537400689
C          20.27319374335919   -3.42501932633117    3.85642604229838
C          21.17257777467814   -2.63512807274720    4.57566819064986
S          20.48825794728722   -1.06219845356245    4.95127472786122
C          18.92642381036453   -1.44833294633948    4.09192276600797
C          22.46714170422554   -2.96531160495406    4.95384960478650
C          23.15846945579377   -4.16938697816997    4.72628544482576
C          24.44221163803905   -4.16896304984568    5.19451351326453
C          24.82515435028615   -2.96366089958555    5.81370893713677
S          23.48964247416005   -1.82394592477818    5.79629723582520
C          26.04996779872798   -2.64541950339728    6.36085359321173
S          27.38972959703353   -3.77801065258694    6.36617427493758
C          28.49766751117004   -2.58724408763177    7.19046433407108
C          27.69965824767485   -1.34134609156334    7.41659914642131
C          26.42097542564712   -1.42278653686566    6.96406970868584
C          28.26692462579106   -0.18762516341457    8.05165270884278
C          29.52203907974950   -0.08724575174199    8.49521927521110
H          -3.06218267228417   -4.81418533987589   -6.94424934338486
H          -2.40482277025614   -6.42323212991644   -7.54537171520232
H          -1.48082124728989   -3.35631835923872   -5.36155829972554
H           0.86394035705524   -3.45812330294467   -4.30014513480903
H           3.03349379212867   -4.03140619426499   -3.58893390091687
H           5.31042812966545   -5.16597083854397   -3.17469291109902
H           6.64380233770210   -7.29044124402956   -3.80253400115183
H           5.08361899292731   -9.20477168582457   -5.62802580874057
H           6.48322719339998  -11.29527425357703   -6.31068603077475
H           8.83415543679223  -12.31599858949133   -5.99210533189949
H          11.17422667075422  -12.65504480580292   -5.53411593451600
H          13.58178142796921  -12.50410050558937   -4.61537148180536
H          14.95587639993432  -11.27743728338919   -2.97441923882164
H          12.28869418398290   -4.07034649974871   -1.03466106157047
H          14.70728351394252   -0.97564130082024    2.02301153434733
H          16.65392458631522   -1.86475194150723    2.73531944623431
H          18.25762148386469   -4.46548925385147    2.45491120616604
H          20.52444345309884   -4.42261156476292    3.54130629763655
H          18.78373891342725   -0.71015563371955    3.30108322056164
H          18.11004380714824   -1.36004727576375    4.81069257488288
H          22.70159083449323   -5.00280097192595    4.22446872953655
H          25.12881462454448   -4.99305655913906    5.11096691354652
H          29.35855609503263   -2.41462428677578    6.54178870298546
H          28.84603833652513   -3.03155912864021    8.12455947947822
H          25.70521302944573   -0.62110814377312    7.04099533273071
H          27.59145687006927    0.65037332746558    8.16157793982776
H          30.23108791645048   -0.89256355265993    8.40809776735766
H          29.87790174643511    0.81378637985968    8.96232363447195
