100
 SCF done       -173.838445862899          0.000704657793
C           0.99555456201407  -15.09525212182238   -0.38965575639998
C           1.13959478192819  -14.56471923444079    0.82933350520703
C           0.74393458176544  -15.12744892746140    2.08999231169723
C           1.00949165495323  -14.34904016382274    3.16043080199249
C           1.63251841947540  -13.10556803189779    2.84822407914039
S           1.88945177758059  -12.98447714991139    1.11484392757639
C           1.96803504079284  -12.09671013382354    3.71231211673749
C           1.74490191053491  -12.04642813149672    5.11616261067339
C           2.11557529162060  -10.88210330847402    5.69649794625716
C           2.67251071266298   -9.91996109948795    4.79857208628875
S           2.71759867851737  -10.60118073583673    3.16853463985043
C           3.05636872465532   -8.65655450780909    5.10905911544424
C           3.54015421079043   -7.66107545078366    4.17346364596286
C           4.48529056082663   -7.87438232233212    3.15741393336856
N           5.33118764409569   -8.94440506451579    2.93256853114336
C           5.82681244962250   -9.80838900163920    3.97933798907514
C           7.14639809120343   -9.28698968763865    4.55902248779018
C           7.71313723958074  -10.26285297996102    5.58006949166468
C           6.04310242698577   -8.68912280155208    1.77334037893912
C           5.66807672084849   -7.42843315154991    1.25497730620063
C           4.68398195476691   -6.89703260423724    2.15396169210367
C           4.02436820684261   -5.67769329036638    2.19444092753901
C           3.18246508518375   -5.42389928626179    3.26084810884523
C           2.95334591853197   -6.39270864030806    4.22474082925831
C           6.25947644140946   -6.92071306009666    0.10701472896406
C           7.23293414752805   -7.67271310815617   -0.51940978920735
C           7.58973137584230   -8.92133719451270   -0.02566484997232
C           6.99726175529268   -9.46808388804438    1.10783990164575
C           7.39837282184465  -10.81162311524615    1.52915436524019
N           6.54755858970791  -11.87439185184274    1.53547225899255
C           5.20954287531456  -11.81829799260981    1.00411369604561
C           5.16681666607248  -12.29250569718660   -0.44595058291152
C           7.22358036735341  -12.98426547257380    1.98823367479246
C           8.53062993370790  -12.58588150628847    2.27388806100077
C           8.64075615746507  -11.23390992484332    1.97207407970104
C           6.70924575759469  -14.29922432087333    2.17841476298295
S           7.78729857958422  -15.44208044735933    2.98303567812284
C           5.50094180861841  -14.89265627846797    1.84647475037625
C           5.44552166481900  -16.23286027180451    2.22476379413911
C           4.49963525371342  -17.33376471231875    2.12992315225966
S           2.99452834019868  -17.28954742881809    1.49130881640984
C           6.61653854891737  -16.68588128739176    2.85540370290936
C           6.46320881026800  -18.05239285615581    3.16540602318084
S           7.33940773337343  -19.32006510631408    3.87848435340509
C           5.18006612773359  -18.46930428658101    2.72335932177464
C           4.93151209285876  -19.81109157807057    2.94888881522857
C           6.00171103110951  -20.45367683658376    3.56592367769903
C           6.21193779354832  -21.77284662544476    3.98630574652307
C           5.48160901965348  -22.91982501947117    3.78265231675434
C           5.86325960534676  -24.21155478183909    4.32109717148617
C           6.77013035468933  -24.45802275327929    5.32228234795324
C           7.07718973285992  -25.74593473983845    5.80664174908792
N           7.37071332195255  -26.76640877717931    6.24426828856661
C           7.48826884204910  -23.48374666071417    6.04591915045590
N           8.09613955703125  -22.76024621289320    6.69956955312073
C           5.04929659164252  -25.22925778406208    3.66456244685187
C           4.11373869068362  -24.58009583063091    2.82572533145829
C           4.31261829195274  -23.11766918002449    2.90293673815775
O           3.63473500476136  -22.28928731594316    2.32852346860796
C           3.19470670658995  -25.26336990185999    2.06830182994878
C           3.20515275769829  -26.66061384591123    2.13582018635071
C           4.14863446003313  -27.30223905994023    2.97175797750750
C           5.07396384845142  -26.60898018440747    3.74290782320947
S           3.99505042347564  -29.03218659318715    2.89811106920467
C           2.68263135026424  -28.87038356052008    1.76161373063727
C           2.37339003097957  -27.58936749216309    1.45175985896012
Br          1.84578299912474  -30.40895590314897    1.08932208416445
H           0.54307834360337  -16.06288647152504   -0.51162695518892
H           1.33603333878781  -14.58874309107043   -1.27439176835215
H           0.27185538358994  -16.09230466962805    2.13038064433754
H           0.77804383409221  -14.61682949164648    4.17614786271047
H           1.30172442916118  -12.87142022572416    5.64462361903332
H           2.00825741262355  -10.65955227485912    6.74381532569235
H           2.85218565590501   -8.31463824372323    6.11643511516664
H           5.96580917744962  -10.81906528988431    3.59341823702899
H           5.08550685984660   -9.85010701396855    4.77609389870697
H           6.96947255661317   -8.31500448041441    5.02574992892117
H           7.86671583680652   -9.14457438714741    3.75181134187797
H           7.00692808753628  -10.42322810564091    6.39190728281512
H           8.63822705371583   -9.87746188120579    6.00043320414059
H           7.92291914090773  -11.22142403021333    5.10993940061643
H           4.18186362521060   -4.94292883056072    1.42029623617367
H           2.67793792942964   -4.47265608583658    3.33732413915173
H           2.25202038874747   -6.18865007027293    5.02103816001763
H           5.96458943220629   -5.95760876783615   -0.27980968467441
H           7.71705422482748   -7.29878239704062   -1.40870935070690
H           8.33839593535825   -9.50457255346381   -0.54169591147711
H           4.86369343324198  -10.78453762422519    1.05102734918371
H           4.54660541015760  -12.41349420380825    1.63301318096398
H           5.74961765564264  -11.62190917678693   -1.07316063061350
H           4.13854695102651  -12.29456730298824   -0.79559304668132
H           5.57437516357437  -13.29606799681338   -0.54240619057900
H           9.30466946405287  -13.22327191873924    2.65464437339488
H           9.51133209138272  -10.61771933837431    2.07806210331421
H           4.69206519316138  -14.40878847620755    1.33477858630077
H           4.02830647835851  -20.32643713572775    2.67630422925648
H           7.13643166954502  -21.89913149574708    4.53825969343714
H           2.49279089566426  -24.73697891152806    1.44065344289225
H           5.77442250164613  -27.14566234735094    4.36031722891266
H           1.59276153882981  -27.30838743648777    0.76858498639836
