103
 SCF done       -192.165262627483          0.000506556947
C           8.82966100933105    6.81367116931241  -11.57204535207683
C           9.53670440909470    6.25658677821839  -10.57511970181990
C          10.62215189377270    6.82643271336359   -9.83821571175776
C          11.13820122193076    6.00946195401577   -8.88518221177187
C          10.50777409443767    4.74538030167653   -8.79806282773704
S           9.22092864336691    4.62174204087134   -9.97207853299399
C          10.82389189768083    3.70544734177197   -7.93392756119163
C          11.82704649870236    3.66862502343706   -6.95326094482520
C          11.89145782279505    2.47508253426686   -6.27622119007344
C          10.94846756892936    1.52854757275825   -6.69155019689236
S           9.95601783170788    2.18664591277472   -7.96983549516730
C          10.79630737378100    0.22596514754790   -6.20567965793163
C           9.86334518542455   -0.66752665330749   -6.65785924410819
C           9.73513133540298   -1.99016545533858   -6.21443950457148
C           8.81958641155025   -2.93772657533861   -6.66708760047906
C           8.95729545785225   -4.17824253542451   -6.07620633705585
C           9.98535912193526   -4.23756987000026   -5.13898073221752
S          10.77865926642330   -2.69310900471909   -5.00096159370553
C          10.40559235124964   -5.35700482698745   -4.39727339951273
C           9.92082069824871   -6.65845791123766   -4.48023528360579
C          10.58030931422206   -7.54638568140386   -3.65165799244620
C          11.58946121509830   -6.96575969379693   -2.88954362784497
S          11.70131458070224   -5.25867286199518   -3.23503469972830
C          12.43060043723414   -7.62460732980204   -1.97806235787704
C          13.36339006485627   -7.02764895977325   -1.18124489291662
C          14.20426700770312   -7.72656777157958   -0.29934040380002
C          15.10526345861736   -7.19378954741190    0.61939460423745
C          15.78547320974339   -8.14320669234525    1.35685491210504
C          15.44565178860712   -9.45367442586020    1.02392231291767
S          14.23591844838295   -9.47114205281241   -0.23171306636194
C          15.94556231022659  -10.64907027465139    1.55622315411863
C          16.81061429999874  -10.83469178413196    2.63772736208215
C          17.08705224547580  -12.15360591953485    2.90109904759016
C          16.44708028908585  -13.06985521609637    2.04478780249323
S          15.49760128632774  -12.18815954268188    0.87096609150624
C          16.64358133080487  -14.44065941972800    2.08823886443975
C          16.13828904591286  -15.49858789246812    1.33027675130305
S          17.17795500040874  -16.91143497422108    1.29054511658277
C          16.19152049456547  -17.67607802878678    0.08048203752015
C          15.09499420010832  -16.84993621767311   -0.24963789097866
C          15.01056187512013  -15.68740538677058    0.50078382277660
C          13.73999087623699  -14.87893209841645    0.54855253320862
C          13.18454029811632  -14.86285778009697    1.97347449574919
F          13.04832664271845  -16.09921051027085    2.47681602469042
F          13.91896161804892  -14.17841526135294    2.85922269346169
F          11.96154837078153  -14.30303592382597    2.01290863331999
C          12.65025521394646  -15.48880406494246   -0.34571700506683
C          13.24506479705363  -15.96982690853677   -1.65656338347559
C          14.16402232815573  -17.16893340261911   -1.39184696242639
O          14.97968313444724  -17.46104983819383   -2.51440157683649
C          14.30128335565311  -18.04813390327766   -3.60111554922443
C          16.36676121546715  -18.95709415401195   -0.44012741521471
C          17.33146003614511  -19.90600571335673   -0.17093029424309
C          17.36981155380611  -21.23222605185961   -0.73628753592902
C          16.39138788885546  -21.85040018420487   -1.48264550513336
C          16.50610020581331  -23.15110447615479   -2.01013959075015
N          16.53991282411288  -24.20184207206207   -2.47434271426725
C          15.13138028356181  -21.30969340613313   -1.79800927277029
N          14.07001894273052  -20.96920629462159   -2.08356131922921
C          18.62593736178832  -21.85349118516567   -0.32278156797309
C          19.31164156866853  -20.95588344643199    0.53170723035649
C          18.51237305265643  -19.72211121028054    0.67192966330591
O          18.80207628225256  -18.75559741668375    1.35693427933387
C          20.52397662862468  -21.25221985243364    1.10195636944555
C          21.09365748136922  -22.49752062257737    0.81110339864547
C          20.40496016401966  -23.38585101613340   -0.04583392726654
C          19.17457062990301  -23.08584133506263   -0.62017104145961
S          21.28719806913099  -24.86595883991351   -0.27448763382233
C          22.55185594032997  -24.27735421877500    0.77153656255635
C          22.32753386833978  -23.03782230720497    1.26719984397440
Br         24.05032674515135  -25.35480841089524    1.10942410090949
H           9.05165992519050    7.80999429912925  -11.91103091023004
H           8.02870757167153    6.28851632427188  -12.05901427015554
H          10.97148489032392    7.82092275186876  -10.05098725252327
H          11.95648060003367    6.27542422597574   -8.23987123589417
H          12.47728562984001    4.50327692776057   -6.76393804130368
H          12.59871904859443    2.26273375352706   -5.49385366193806
H          11.48259690774365   -0.08303055682439   -5.42705602442848
H           9.17238877279130   -0.35263083709968   -7.43020289323201
H           8.08282253925546   -2.70581950047912   -7.41564669733950
H           8.33763006612650   -5.02484340645267   -6.30954605031398
H           9.11739458357460   -6.93681722045892   -5.13762467825633
H          10.34794521634675   -8.59451587673252   -3.58627920751841
H          12.30702234133785   -8.69898207782508   -1.91521513582863
H          13.47178331067014   -5.95067750243545   -1.20621767407674
H          15.24005461286309   -6.13281898828525    0.73556283507404
H          16.51613464488105   -7.91023309326653    2.11011544881148
H          17.20259403182176  -10.01135503834937    3.20714855542096
H          17.72674454158028  -12.48730481031170    3.69838202623657
H          17.42810774482918  -14.74082251044332    2.77480197678111
H          13.91395668896486  -13.83867983076204    0.26049052288051
H          11.87439312357697  -14.74374146489130   -0.52544163845269
H          12.19173037825950  -16.33847282067706    0.16683528828073
H          13.83556301381159  -15.17653315546317   -2.11955359266739
H          12.44777811477179  -16.25724076897210   -2.34184448022851
H          13.54927012787512  -18.05314665151759   -1.14344754530187
H          15.07270478387421  -18.32055544060325   -4.31926888401516
H          13.60392778551031  -17.34919979932984   -4.07403089889154
H          13.76045870340861  -18.94890134553372   -3.29055098001456
H          15.62365196587029  -19.23665414823028   -1.17191308586384
H          21.01920168170973  -20.54757834402694    1.75144939502512
H          18.69115736746075  -23.79847951632343   -1.26709986288810
H          23.00254991082672  -22.52346765601189    1.92669125145108
