65
 SCF done       -128.426581861164          0.000452919581
C           4.77995032062380    2.70145284667219   -1.67043884892236
C           5.66166815283455    1.76158667714820   -1.30727469378578
C           7.07599789823805    1.91711153686715   -1.10689953034689
C           7.71461017785304    0.78573207957794   -0.74399243007956
C           6.86613628135295   -0.35605569275428   -0.63100054644052
S           5.21147830149067    0.07620354786586   -0.99818758467677
C           7.23536377509227   -1.63336133207637   -0.29500192481141
C           8.53505840156694   -2.11512783133366    0.01571835918842
C           8.58003171995378   -3.43985335170724    0.28966046870932
C           7.31886478540898   -4.10524073353369    0.19843334966191
S           6.07079321913522   -2.94311658418588   -0.21344751046261
C           7.12094094908342   -5.42203100192199    0.48481525459505
C           5.91335843038645   -6.17974473583884    0.38248137802918
C           5.63059185356876   -7.21231991272132    1.27351577463270
C           6.43124423077384   -7.60989356230813    2.34135778156976
N           7.10624304509655   -7.93358864205333    3.21323953942144
S           4.10939263999321   -7.98815361751131    0.96817197159235
C           3.85767144312551   -6.98242480399420   -0.41275259805806
C           4.88113052983013   -6.07413255623009   -0.60061975627144
C           4.86698017851104   -5.20746954836287   -1.70986507935167
N           4.80386169685166   -4.53538697256432   -2.63648854926958
C           2.69698541439629   -7.16372908904003   -1.25716470214933
C           1.40303639074059   -7.27066068538852   -0.78498079846299
C           0.99489158807541   -7.16435677947279    0.54705657365729
N           0.66762845409953   -7.06798522319242    1.64255549499651
S           0.24904460280790   -7.51913808516541   -2.05544180627909
C           1.50477392258076   -7.49525748176191   -3.24190603030014
C           2.74955228338665   -7.29346156572069   -2.67349782119185
C           3.95313772033451   -7.42383246104212   -3.39269614115076
N           4.93087079719155   -7.63799659938938   -3.95066554414231
C           1.21433577350751   -7.69578739570855   -4.64148046278127
C           1.81851487915048   -6.98721572939549   -5.66749713934635
C           2.69316321837506   -5.90453672894952   -5.56093528767907
N           3.36994340694676   -4.97907452938890   -5.51021431511861
S           1.24981159159840   -7.48072193718607   -7.23619122683462
C           0.18381041371095   -8.65971699178137   -6.52956505161677
C           0.28096499777734   -8.64179273196327   -5.13231722466465
C          -0.45195916248167   -9.51624828562798   -4.31980143782739
N          -1.05078607876497  -10.24240565201814   -3.66141689974141
C          -0.65645559812402   -9.50679401655496   -7.26944357660258
C          -0.81169951452866   -9.53082818837196   -8.63078151935336
C          -1.68637514792497  -10.39694306385442   -9.34348101995789
C          -1.68191324156441  -10.21233635272379  -10.68789183394673
C          -0.80247914319381   -9.18987416329621  -11.12479506950608
S           0.02797628387674   -8.47878456868420   -9.74854477975534
C          -0.57989574090609   -8.75235481294328  -12.40773685175078
C          -1.19519016803236   -9.23569165466319  -13.60109540167479
C          -0.78991012492799   -8.60926685110732  -14.72528337415630
C           0.18519586514871   -7.57649161782840  -14.50994687669369
S           0.54222562340603   -7.46559721827907  -12.77786106410912
C           0.76407081580511   -6.79230239243734  -15.42763054201106
H           5.09744453729540    3.71358772530856   -1.84995718967003
H           3.73684164106072    2.47784930972881   -1.79836959791216
H           7.54753322830848    2.87350320176226   -1.24811618376569
H           8.77103304813323    0.71786769019458   -0.55429065133169
H           9.39209372608921   -1.46592050041980    0.02455628287093
H           9.47233140029450   -3.98414951965601    0.54348067628262
H           7.95935746566054   -5.95438974348370    0.91762799272344
H          -1.24737254750123  -10.20571760049082   -6.69079300574737
H          -2.28845007569897  -11.12303824746519   -8.82685992015919
H          -2.28358611523588  -10.77667401107449  -11.37715869144169
H          -1.91815239989985  -10.03117666630368  -13.57493085790605
H          -1.14146355224968   -8.83260636434928  -15.71679380050157
H           0.51695863879291   -6.89126362497728  -16.47003773811857
H           1.48621285172435   -6.04382460483922  -15.15746041013119
