91
 SCF done       -177.695619484284          0.000928439161
C           2.05356347708653   -0.08314472880644   12.13539799287355
C           3.24160879148435   -0.48766392872479   11.66315310552099
C           4.53850384295842   -0.26472014997790   12.23205215659300
C           5.55927762479059   -0.79476132101389   11.51918706720355
C           5.15348541525118   -1.47408846813059   10.33870886997147
S           3.41636749731881   -1.41956970865855   10.16642464067668
C           5.97697837514499   -2.09881177403906    9.42258062289658
C           7.38398187310381   -2.18381114017110    9.45579465367372
C           7.91663129881618   -2.86018046275177    8.39585221360306
C           6.96324957982182   -3.34518191406833    7.48089050846836
S           5.35142180044549   -2.91243576415793    8.00122162706399
C           7.24388407556492   -4.06561049336664    6.32983571404916
C           6.31273136292058   -4.55441389005217    5.43742603866662
C           6.64448625633387   -5.26905229707277    4.29375627440860
C           5.77581950970404   -5.80797612044311    3.33207310521424
C           6.40631278165488   -6.46094150140287    2.30462415722351
C           7.80685867961019   -6.46224621070245    2.41444758233212
S           8.30507537316978   -5.61680113003233    3.86008026092054
C           8.74095165741148   -7.01688083518487    1.55112587742955
C           8.52969263160350   -7.71840285787329    0.35126593832988
C           9.67350971672040   -8.12502451645132   -0.27472297274583
C          10.86008232287601   -7.76275282661285    0.40384771145789
S          10.45587159023538   -6.88514709096969    1.88060265173275
C          12.15079480855061   -8.01272961600771    0.03139926169146
N          13.21298841337068   -7.60755334016252    0.77700072985379
C          14.51766026475417   -7.78209183810872    0.48822856715007
S          15.00001029926953   -8.58451409515544   -0.97622955761459
C          16.66451246893335   -8.35697643321347   -0.52956283201123
N          17.62793546524615   -8.84474132188651   -1.40699621793339
O          18.80207654836565   -8.69304505978829   -1.11226522204586
O          17.21489367934790   -9.39288701901971   -2.42049917259796
C          16.82690702758764   -7.70828889195672    0.66563113199905
C          15.60820755541572   -7.36456965055423    1.27772941289070
C          15.47268859618312   -6.68967601040156    2.53784433088039
C          16.51100185691731   -6.29595199622288    3.29942958871088
N          16.36543356651891   -5.66600927463671    4.50796800313423
C          17.37915269588201   -5.27915833871585    5.31022634407969
S          19.02752245420105   -5.54235105249425    4.83849003846975
C          19.55526490081000   -4.83135366189745    6.33695849891741
N          20.93628555394528   -4.75021734107910    6.54334833114266
O          21.33134684668013   -4.25058544824303    7.57905180964251
O          21.64216942699034   -5.19110410226444    5.65051765139021
C          18.53132122666774   -4.42653366226549    7.14117488645005
C          17.25747049025384   -4.66628256257726    6.57625007915942
C          16.01956620334305   -4.32535864245354    7.19366813986408
C          15.90153832490098   -3.83782995525663    8.45948699236009
C          14.66066063677396   -3.48415481125154    9.02329496657706
C          14.49756645118939   -3.02393260296886   10.30613655406491
C          13.26370711281095   -2.61007099541212   10.93177046093227
C          12.01466784816628   -2.55623890041688   10.35438328135024
C          10.86098327605191   -2.08191750331007   11.00414007187873
N           9.88024748982508   -1.69094871464698   11.45964137289651
C          11.69672702183971   -2.95265942655701    9.04323587760945
N          11.32840653146749   -3.26694775162995    7.99945108534850
C          13.56225686052226   -2.23292665010731   12.30820400810156
C          14.95113600420670   -2.39159492886495   12.53316384539816
C          15.59318466147800   -2.87564306862515   11.29395738753092
O          16.77568288327213   -3.10270512813452   11.14404592375015
C          15.54217826180416   -2.13116296960358   13.74432304011099
C          14.72136735379074   -1.69336842189161   14.79001957149370
C          13.33474194942195   -1.53726668749116   14.55721777723956
C          12.73792907107542   -1.79982782621167   13.33040580718745
S          12.50497085708952   -0.99318482869203   15.98434337264777
C          14.01165651035506   -0.98487460368325   16.86222774017082
C          15.08182915506421   -1.36795868175599   16.12603688850220
Br         14.02682082552478   -0.47316645120464   18.66686733024513
H           1.98990970638942    0.48235751024582   13.04822217816234
H           1.13540140447567   -0.30681320903702   11.62397431027826
H           4.64796687142894    0.28382796486943   13.15047364889366
H           6.59596608315305   -0.72690455766956   11.79619782409408
H           7.96894292263159   -1.75604611124039   10.24969740857626
H           8.96847366678899   -3.02431026564343    8.24200612815047
H           8.29252593622609   -4.25217517821163    6.13178328865305
H           5.26136989968472   -4.37881668125594    5.62646008472685
H           4.70850284727825   -5.70291218646371    3.41677927168942
H           5.89599731660350   -6.93139018665122    1.48367544051536
H           7.53968558937283   -7.90572284184074   -0.02356798904373
H           9.70236616571995   -8.67032190904612   -1.20045250615773
H          12.36906577373793   -8.54573443878157   -0.88051101588423
H          12.98446175312871   -7.11629921309661    1.63435244558312
H          17.80336873408407   -7.50229559478890    1.06204529397809
H          14.46933528387631   -6.49364110794703    2.89461711307169
H          17.53318971365742   -6.46097683167465    2.99939320361336
H          15.42160324578713   -5.49244437069140    4.83256892135167
H          18.70324538112858   -3.96606407694361    8.09663849375293
H          15.11360599606360   -4.46126475341879    6.61389651011852
H          16.77631089348476   -3.71345398503916    9.07674932773894
H          13.78686501253569   -3.58453471312563    8.39154815494366
H          16.60361645298708   -2.26422063517598   13.88290954858035
H          11.67613563472129   -1.66814139881652   13.20758956640408
H          16.08489274541649   -1.42085183110759   16.50814039197958
