91
 SCF done       -171.974272959009          0.000403498953
C          30.52405205539319   -7.39326980080661   -7.05990251490174
C          29.35279812883318   -7.07659575446188   -6.48739773730719
C          29.04314922873753   -5.92203680363845   -5.69745785520067
C          27.75591630418191   -5.86092578943772   -5.27853976976473
C          26.95582669064444   -6.95568616350442   -5.69862091533075
S          27.90250553913527   -8.08590825589957   -6.63474313546768
C          25.61251868170288   -7.13538888859339   -5.42108522218608
C          24.75817093122131   -6.23760630806947   -4.75200494787800
C          23.48451403039210   -6.71233657087432   -4.60639800900457
C          23.27339135054617   -7.99189954366735   -5.14748934691227
S          24.74345622122328   -8.59025011715413   -5.87442468351915
C          22.07382592101681   -8.69404013792386   -5.09745612941007
C          21.82397207164154   -9.93851041615072   -5.62547775500654
C          20.59672123704121  -10.58838304377883   -5.48533051891961
C          20.21021779067449  -11.83598049576507   -5.98528738174715
C          18.92762996392221  -12.20642704847468   -5.64632209448158
C          18.26150390686918  -11.26168036676778   -4.86012737518559
S          19.28459944696764   -9.88060714102900   -4.56924943345559
C          16.97874385402337  -11.31204247978070   -4.30591489621751
C          16.00587722798720  -12.31203792495447   -4.40441394565766
C          14.85906084735028  -12.03892306168420   -3.69548915232652
C          14.88469680966637  -10.81550547334859   -3.01002407929370
S          16.40951333654248  -10.00517508877635   -3.30093619921072
C          13.91154219827576  -10.25818925855876   -2.18782231394732
C          14.08773084244432   -9.03921433318002   -1.55450521456780
C          13.20155387333553   -8.42377002382855   -0.69519677398878
C          13.50011890580375   -7.19382137194668   -0.10419177348796
O          14.67022095162078   -6.55882392748480   -0.38250959213777
C          14.71688105155123   -5.39488041243964    0.32008546976251
C          13.54020845815554   -5.28096536296053    1.07574968686208
C          12.76831653290468   -6.41342364732396    0.80891549539308
O          11.55665806583322   -6.72515538676078    1.31459805006593
O          13.16152021783708   -4.28563133838292    1.92337307172190
C          15.82273294903736   -4.53937967262753    0.19868166419182
C          16.88686303152414   -4.81727681375015   -0.62026304815673
C          18.00183194527016   -3.98722202966152   -0.79448848089202
C          19.02254913388917   -4.30918009645609   -1.64969899465615
C          20.16326287720319   -3.53165112037312   -1.90954698054399
S          21.33285858695729   -4.13433919440804   -3.08744387943200
C          22.31431641584110   -2.73756118349069   -2.87308828295943
N          23.44329158763334   -2.37434243407506   -3.43781670746558
C          23.85438222255517   -1.21214863812108   -3.00453865351436
S          22.75335689453017   -0.47432991082542   -1.76879941446170
C          21.74103094762848   -1.85243605003897   -1.92054134624391
C          20.54538712930557   -2.30082555002468   -1.38569643725399
C          24.95651847763301   -0.44812028345068   -3.39210640736022
C          25.96102599012203   -0.76363056825951   -4.27886298680701
C          26.97110843882328    0.15980749443517   -4.74381200140305
C          27.11668833108034    1.48544542784497   -4.40373754038657
C          28.13407770625826    2.32126802902473   -4.90487491624922
N          28.93568834837249    3.05807760956127   -5.27210510451512
C          26.29558814167129    2.21721890985661   -3.52333476468509
N          25.68491241707290    2.89927142908105   -2.82806041269577
C          27.82433046115281   -0.55014316593434   -5.69457339271161
C          27.34740416955288   -1.87556057325502   -5.82335266769921
C          26.22048905774964   -2.08291808397780   -4.88633132208643
O          25.72022196651425   -3.15748888456055   -4.62427911025792
C          27.91656658570444   -2.78945094480332   -6.67375752717192
C          29.04047750574840   -2.39082233338418   -7.40462812790136
C          29.52440997648639   -1.07161174858926   -7.25561698057736
C          28.92679839497212   -0.13573311785104   -6.41868378367774
S          30.93614946391247   -0.79729222712375   -8.23340930338816
C          30.85962412600830   -2.44144912615197   -8.81068130312069
C          29.82759248538607   -3.15800292118207   -8.30672887322760
Br         32.15639805158450   -3.06381897014636  -10.01598540312023
H          31.37938649036832   -6.74970989603985   -6.95145582828803
H          30.64757476054944   -8.29006385311597   -7.63855998283927
H          29.79673260685088   -5.18559671099630   -5.48052367386251
H          27.34050403304620   -5.06923223117232   -4.68052355816747
H          25.07517343572237   -5.26461959723516   -4.42526809219510
H          22.69114748675609   -6.16960460580466   -4.12622878244296
H          21.26501372066576   -8.19377994702761   -4.57775880615307
H          22.60402013737304  -10.45293933117556   -6.17144014322526
H          20.87389778079656  -12.43880454999868   -6.57991155553319
H          18.46949973905229  -13.13270892529744   -5.94331752356795
H          16.15795116277862  -13.20579819121531   -4.98281021735104
H          14.00693220595301  -12.69413502873112   -3.65212127248669
H          12.99640353636747  -10.81506491946262   -2.04032688104992
H          15.01861406325179   -8.51873832974192   -1.74323248456933
H          12.25352287254175   -8.87160906095262   -0.44191593238247
H          11.28966568802199   -6.01759574298522    1.91594655229429
H          13.84631420191737   -3.60950374699766    1.95605013603377
H          15.81209066913609   -3.62481742604469    0.77711536079620
H          16.85677244291647   -5.74154427117860   -1.18027066979487
H          18.04016168483614   -3.06110752389267   -0.23751248825965
H          18.95358835913860   -5.24216473424517   -2.19371605559469
H          19.97101331697607   -1.76456693339405   -0.65417522046565
H          24.97981693975649    0.53489931113486   -2.94086430798986
H          27.51455894808059   -3.78450739736912   -6.77446468319989
H          29.33001013487237    0.86023970071610   -6.34814671895980
H          29.63152709140178   -4.18638757797949   -8.55096768765133
