97
 SCF done       -162.511040808256          0.000758967261
C           1.19776840544129   -9.93892817202895   13.40627607351547
C           2.09703498364569   -9.33389750886193   12.61208623014531
C           2.59795444386347   -7.99811347519707   12.70456702578337
C           3.50567945347737   -7.67441414383824   11.74781111186404
C           3.79278306801570   -8.71682230163941   10.83749469442102
S           2.86130244938104  -10.14542603911010   11.23663665740532
C           4.67101176775780   -8.68285685252475    9.76487333904428
C           5.47042404411443   -7.61154496297704    9.33443827344784
C           6.23527310407134   -7.90204982922613    8.23212794530913
C           6.07620781305888   -9.20533755611034    7.74712569463114
S           4.91554934953101  -10.07336008238860    8.73016675294117
C           6.72421042691328   -9.77602467696868    6.65183761651864
C           6.55039030155919  -11.06387018073270    6.21269084768618
C           7.21555268943600  -11.62235608599035    5.11694380064331
C           7.09843828764729  -12.92349674547781    4.62614620731409
C           7.89322428131589  -13.18708445969469    3.52963215145339
C           8.66255321183639  -12.09951621337031    3.12027675517490
S           8.36300140393000  -10.72061792567639    4.15234047022945
C           9.57281365168913  -12.01598665211263    2.05924738638496
C           9.95850164321037  -13.01661739467097    1.16377827990473
C          10.88768453157940  -12.59418368198206    0.24262258604864
C          11.27852380204599  -11.25376874836835    0.38509649187190
S          10.41746780365005  -10.52865495197220    1.72395020486207
C          12.15889532778854  -10.59666024711689   -0.46892177638191
C          12.63482015866367   -9.29528465933645   -0.43797422948988
C          12.64532149684789   -8.28583046952880    0.55857544616628
O          12.12295854179021   -8.55113703991455    1.78538214697507
C          11.84333166922826   -7.42750848902799    2.58844822427872
C          13.07655436308166   -6.56380282339711    2.80457107602312
S          13.53733050575910   -5.74075866768887    1.24442813676711
C          13.29405590778700   -7.12530807157447    0.18634649190688
C          13.82646126290344   -7.12903046595123   -1.12264330326541
S          13.43727581762809   -8.68434643600460   -1.89444328852622
N          12.04480458890739   -8.11958373789236   -2.76334135416147
C          11.27095642112852   -9.13700464522669   -3.44575954331475
C          14.52919397553645   -6.15153050830975   -1.78532551315121
C          15.04878088043549   -6.26768000125784   -3.07200714861964
C          15.69729129471443   -5.24706213549632   -3.72614101371529
C          16.23101747709469   -5.32540355853534   -5.01352210832366
C          16.87407065532706   -4.31003473981369   -5.72084197806683
C          17.29880527418450   -4.68027955106984   -6.97953943122530
C          17.00713283986466   -6.00428313791359   -7.30452207766146
S          16.17085904088572   -6.78411102179420   -5.98709609731277
C          17.32380136496215   -6.68207232014468   -8.49148006068237
C          17.96036038933720   -6.16750731236870   -9.61846732236029
C          18.15232687631700   -7.09682773598690  -10.62022562338118
C          17.67745136245309   -8.37132677464135  -10.31408778458625
S          16.95917061411662   -8.37595135553419   -8.71933729657557
C          17.76111933321841   -9.51169451350020  -11.12058196572538
C          17.30278344647136  -10.75728475740951  -10.78050341735747
C          17.42773437233196  -11.89417418799101  -11.58223741979837
C          16.99217353181027  -13.18963913394899  -11.28596445049122
C          17.27393862054801  -14.11773177905106  -12.25904744084226
C          17.94699938000638  -13.58461859042124  -13.36922403477120
S          18.20924953174298  -11.86851960934243  -13.14934648979833
C          18.38306010431027  -14.24877229705191  -14.50699196270268
C          18.25271383673260  -15.62400906388107  -14.80373298774113
C          18.78754886068528  -15.99494057660990  -15.99603248868090
C          19.38352418443796  -14.92408285186979  -16.73166786889374
S          19.21577382015314  -13.42305086238881  -15.80778470823043
C          19.98774526837900  -14.97744736466276  -17.93093842298796
H           0.75966294413364   -9.41440723268531   14.23676445115577
H           0.89656473620709  -10.95752066410543   13.24508509280997
H           2.25918143905034   -7.33455029835763   13.48018883062394
H           3.98141106908496   -6.71270375883482   11.66830196466624
H           5.47079104759644   -6.65945752193800    9.83380009325125
H           6.90770162105213   -7.20426427352787    7.76366588832113
H           7.41909289525639   -9.13835001090698    6.11831674081057
H           5.85831977419554  -11.70714645991538    6.74108076770259
H           6.44119603409043  -13.64346635727055    5.08118108365288
H           7.92753727752242  -14.13729016878194    3.02723510770474
H           9.56062231834581  -14.01462152887504    1.20309032307197
H          11.29989378445721  -13.22334362238837   -0.52747672795379
H          12.49282839558167  -11.19047244003452   -1.31314362406024
H          11.49010712226203   -7.84187415350511    3.53587156195776
H          11.04177012825958   -6.82761913302357    2.13697317383502
H          13.91818605432323   -7.17242533515407    3.13642905395964
H          12.88174883953798   -5.77215059975808    3.52442540697081
H          12.36053019619296   -7.39854743720368   -3.40577662385955
H          10.40583081468135   -8.65292759827988   -3.89553631973734
H          10.92080882660578   -9.85382322683108   -2.70408574775464
H          11.82820553985677   -9.66488270660948   -4.22677280241687
H          14.66407680173331   -5.21740210619212   -1.25547908671738
H          14.94169355961713   -7.21769672419461   -3.58540709781841
H          15.80428961862196   -4.29542862459601   -3.22156885464269
H          17.01789026310672   -3.32953017669053   -5.30170904430858
H          17.81437319751119   -4.02233103822705   -7.65531824366644
H          18.26835032808403   -5.13980495379588   -9.68837284755242
H          18.62867581384364   -6.87977475563316  -11.55997082855620
H          18.24044834383540   -9.38149955788838  -12.08295250324157
H          16.81520500237746  -10.89061477628011   -9.82241943680197
H          16.48403048793618  -13.41755677344854  -10.36498854954903
H          17.01194211807102  -15.15828772853663  -12.19236309499562
H          17.76718137265828  -16.30165639410474  -14.12362617994796
H          18.78374812832714  -16.99711138126267  -16.38626333085940
H          20.06941841946966  -15.90918609612122  -18.46187523961904
H          20.40332237186601  -14.10170425079794  -18.39395086630558
