97
 SCF done       -183.078558877121          0.000444716124
C          13.57578470971684  -14.50732495301938   -9.49110242534823
C          13.74765780887696  -13.70131339284991   -8.43514944355753
C          14.96359343271953  -13.07532904139705   -7.99786017562467
C          14.83158613702846  -12.31491175650724   -6.89001076637250
C          13.50941257427757  -12.27307896560174   -6.35978536031542
S          12.43282789798628  -13.24774875189398   -7.33802360860918
C          13.08308054169011  -11.59706045168558   -5.24269252841703
C          13.86004985613642  -10.78891207890918   -4.37216148356321
C          13.15887579392038  -10.27878229373821   -3.33125611441670
C          11.77875375840712  -10.64139989893944   -3.30860313488579
S          11.41937071772764  -11.65160220534181   -4.69501316857262
C          10.93661760478056  -10.31733157812129   -2.28109393378528
C           9.56554461777856  -10.62350125108659   -2.06888524894033
C           8.58006273898335  -10.91661623059464   -3.01358070945468
F           8.85809081019421  -10.82495607658570   -4.32930668223768
C           7.26621419621044  -11.25547797845100   -2.67651140768422
F           6.42268311857766  -11.51938143508433   -3.69454937868741
C           6.78709710273124  -11.35030785171501   -1.37088708363656
C           7.74822495414239  -10.99598798710353   -0.38943716444688
C           9.08036267061089  -10.63151548062819   -0.73267856916877
N           9.72922654446573  -10.36021300792090    0.40837775032529
N           8.83460972433438  -10.54450835668344    1.33963610991746
C           9.13005086278442  -10.35866532919813    2.73271321269938
C           8.81743428987561  -11.62644307500222    3.51878941625679
N           7.65094505270811  -10.91815084887259    0.94334892987324
C           5.46216652985308  -11.79092718818402   -1.06548478076836
C           5.06521990499813  -12.05688296050178    0.20106678008155
C           3.80295912538559  -12.55904669529233    0.59900907567015
O           2.74265360160914  -12.70327257607507   -0.24325709361674
C           3.42620545073637  -13.00966667164947    1.85061646047170
C           3.89258663857323  -13.21188821934840    3.22043965467967
O           4.95327497233913  -12.97721947256234    3.74524591454696
N           2.78831785337404  -13.77117857039807    3.85907444717526
C           1.65765727238991  -13.95042349970001    3.05611313834583
O           0.61333464092882  -14.41110136664941    3.43708992347876
C           2.08617905919892  -13.45505172435531    1.74767212290145
C           1.69194169725055  -13.24309120961715    0.43881417187694
C           0.43728826817641  -13.48527047045281   -0.17918936889782
C           0.12974506182193  -13.06266534140101   -1.42819432258419
C          -1.11592005801955  -13.23489291550335   -2.10807522161511
C          -2.17016956608610  -14.06942268065175   -1.73869519879608
F          -2.06106710183789  -14.84999529258770   -0.64818066810729
C          -3.36823072647552  -14.18084062609220   -2.45218543498786
F          -4.27158842124340  -15.04572568263644   -1.94938101457130
C          -3.66012500937440  -13.45733951046303   -3.61152353645627
C          -2.60086558297747  -12.59753181445156   -4.00777979991890
C          -1.37375843561206  -12.50066546794957   -3.29331916685542
N          -0.60851926178292  -11.60726408424674   -3.93364639560905
N          -1.34062056084147  -11.21854404854401   -4.94146740769987
C          -0.85135892794396  -10.27483511290066   -5.90523005499323
C          -0.28054094296857  -10.99986495860441   -7.12026579572606
N          -2.52353833134701  -11.75893479390680   -5.04918253963104
C          -4.85120378887073  -13.49827846320397   -4.38661793128403
C          -5.94114249436614  -14.29664200838493   -4.19497079540720
C          -7.07165480389382  -14.25015752747239   -5.02527407868960
C          -8.17257547684611  -15.05660153929759   -4.87591511444702
C          -9.34497770550898  -15.05144622505328   -5.67514394474919
C         -10.28059145009570  -15.96495757937171   -5.30478652497033
C          -9.90372629845148  -16.75215319847888   -4.18826598588983
S          -8.31190453807824  -16.28055130106578   -3.62556658517114
C         -10.62246135201911  -17.75595074172307   -3.58162590269920
C         -11.91724540779336  -18.22905192099764   -3.93721584576126
C         -12.37700685122922  -19.23214834885864   -3.15742396318616
C         -11.47433373464907  -19.63482698097651   -2.11682185473848
S         -10.00768173728240  -18.64624828900546   -2.20515677860257
C         -11.65471138108720  -20.59416407369937   -1.19882481408903
H          14.40269488574499  -14.75784207223768  -10.13197915812787
H          12.61626500557109  -14.92718908539758   -9.73114179041039
H          15.88246794356236  -13.22614464465731   -8.53624011139217
H          15.63821972840845  -11.77664991725208   -6.42471676626826
H          14.90778194728493  -10.61541915155891   -4.54021083390671
H          13.57602608249218   -9.65096260292528   -2.56369645251773
H          11.39717271533754   -9.81987749908643   -1.43622951647508
H           8.52243089861452   -9.52968071185525    3.10814779172419
H          10.18691578455292  -10.09329356004522    2.79531194000702
H           7.76612507632283  -11.88368699622246    3.41621278833542
H           9.03797942568894  -11.46896071281075    4.57046782501858
H           9.41887867213577  -12.45651146740585    3.15618079543701
H           4.79058732704525  -11.95098964569342   -1.89758993520168
H           5.76200413944436  -11.92124223084538    1.01528119201336
H           2.79864640500002  -14.02829929338761    4.83554175007428
H          -0.27100833873226  -14.00575607699404    0.44641614126875
H           0.86337217605030  -12.49484902940093   -1.98497797911223
H          -0.07918115697137   -9.68193048946711   -5.41239099575673
H          -1.68647560733118   -9.63630666691741   -6.20091937613160
H           0.54502399910758  -11.64127765994374   -6.82198044261098
H           0.08251746481079  -10.27623491501935   -7.84428956258979
H          -1.05029308750385  -11.60957026595471   -7.58687118525756
H          -4.85358040302727  -12.80828883691852   -5.22081836766476
H          -5.96785710523750  -15.00877479971976   -3.38312220763889
H          -7.08498399706208  -13.53580075774640   -5.83863365885587
H          -9.45437108345365  -14.36764628652546   -6.49875080246683
H         -11.22634921228524  -16.09698492841354   -5.79925563240893
H         -12.46154904803390  -17.80422187545076   -4.76201378246278
H         -13.33134533718685  -19.71466442748184   -3.27287481305013
H         -12.56144264756657  -21.17264728285008   -1.17891922168772
H         -10.90740029937793  -20.81555468054830   -0.45915843196048
