110
 SCF done       -184.481008490154          0.000559097724
C          24.67437561891570  -17.84876007976774   -5.41728245350878
C          23.88224933889671  -16.77245537907911   -5.30195283553742
C          23.85628059673131  -15.60602710409223   -6.13362806283422
C          22.94134172026974  -14.67836017629675   -5.76595469585512
C          22.17578268517076  -15.03033624109546   -4.62386421662052
S          22.66502042877632  -16.60227734381460   -4.02667969430060
C          21.18018316979069  -14.28660255627864   -4.02365868086219
C          20.69975301450536  -13.01606859929699   -4.40472750094048
C          19.70385005988430  -12.53907313066085   -3.60144944484597
C          19.34376272030848  -13.40127743679826   -2.54766190441941
S          20.31926617289615  -14.85657654483984   -2.60740834227471
C          18.37441817380390  -13.17105788062456   -1.58674189971267
C          18.04779475123879  -14.03881417440764   -0.56051032594402
C          17.08105529437375  -13.78777094787105    0.39888967591224
C          16.71139378104357  -14.61607687380346    1.47443909377719
C          15.73348083380639  -14.09689073777077    2.27785071705538
C          15.27995706440188  -12.82694446342739    1.87496578838880
S          16.12911884821978  -12.31353486038454    0.43151592213196
C          14.34894491536985  -12.00613827450314    2.48213879878647
C          13.65008761711808  -12.21758597322277    3.69335102222934
C          12.88696775539788  -11.16380290177243    4.08339102371525
C          12.93953651158951  -10.04323470544305    3.20363624348399
S          13.93917556907711  -10.44608192789838    1.80483671983115
C          12.44853183782939   -8.79927668352235    3.42848199595090
C          12.66616761161598   -7.67361791074950    2.54560823181642
C          13.04209277359350   -6.44595336529034    3.10497386003633
C          13.41052333875226   -5.43010497469035    2.25179747036544
C          13.36185222015671   -5.58342355424054    0.85993580553792
C          12.90658679788291   -6.76161732044936    0.31119880849108
C          12.57318128513289   -7.80642532724480    1.15833385087194
C          13.97091129706033   -4.37026949904405    0.22916736429722
C          14.26689705456000   -3.48188112147313    1.43926976228163
O          14.76050976835719   -2.37864419475842    1.43049716462146
N          13.91419877244394   -4.17483071782899    2.56378864787365
C          14.11027437437378   -3.67583948159544    3.90291617800896
C          12.79454794860272   -3.26719226796949    4.55879749690147
C          15.30031341658652   -4.72044920537025   -0.48923674801760
C          15.00038066074687   -5.46349145228697   -1.79292038085585
O          14.41909683602912   -5.04484983393960   -2.76250301021279
N          15.48939288154523   -6.73261052777938   -1.65308030009825
C          16.07475945447557   -6.94157190440852   -0.41264580734495
C          16.55008926405833   -8.11077924157076    0.13545316389447
C          16.99337956610298   -8.07695626697433    1.46435971005343
C          17.06277080044194   -6.85554471522089    2.14110877775419
C          16.60763027767869   -5.68111553827552    1.56527868162464
C          16.06706283565440   -5.73553869622836    0.29980649833070
C          17.27256408960338   -9.32223855374315    2.14646795499723
C          16.82027386462090   -9.59119670560526    3.39761729880290
C          16.89532329761852  -10.82440276509486    4.10833763455866
C          16.15627695575655  -10.86025106923302    5.24883810757250
C          15.46400963739044   -9.65913064898385    5.52403180277700
S          15.83491612967062   -8.45039798537085    4.31635694478998
C          14.57706795355273   -9.37582454387419    6.54527014874666
C          14.13880611334243  -10.19083967280373    7.60446930736616
C          13.22453747878421   -9.58769017889803    8.42548275969912
C          12.89274142205607   -8.27064611116056    8.05880759217859
S          13.78988846833704   -7.81342616284794    6.62259146176044
C          12.00540882930047   -7.41303236515802    8.68816016317897
C          11.71989106805043   -6.13266473170967    8.24969399688297
C          10.85184220888751   -5.25052296067914    8.86976947048969
C          10.53071754362478   -3.94737489020947    8.44281315991030
C           9.65060739345304   -3.28999962699331    9.25426313642735
C           9.23179157071467   -4.04423120490491   10.37033672527197
S           9.98928415237810   -5.62444192984600   10.34874182206793
C           8.36703328600398   -3.66297676559986   11.37619220805742
C           7.69953237718906   -2.41794767791129   11.51152707839016
C           6.91733457058362   -2.31961006663311   12.61224649748257
C           6.90718197400652   -3.49160830546536   13.43666952544248
S           7.95688917813596   -4.71949506031953   12.71126201539136
C           6.23766666636277   -3.68716470867533   14.58249312387374
H          25.40187584305447  -17.91151201997553   -6.20708368852783
H          24.61034141341408  -18.67446712483292   -4.73288631868501
H          24.52465245973764  -15.51316748276478   -6.97108714139342
H          22.78722710297408  -13.74491216055050   -6.27777242715850
H          21.09558557128079  -12.48768155746270   -5.25317130585274
H          19.21835987379164  -11.58855824118715   -3.73826539081408
H          17.83614513999447  -12.23331064131065   -1.65284746457598
H          18.58063496079055  -14.97857686048309   -0.49004013822324
H          17.17899506929428  -15.57257985126802    1.63004904679501
H          15.33441424948364  -14.59434037675610    3.14359507417537
H          13.75225296931802  -13.13115680820378    4.25182570761631
H          12.30658600991643  -11.12951356468443    4.98874211832997
H          11.97090317777804   -8.60728005267316    4.37957206133257
H          13.11039603929434   -6.34691531186675    4.17653327629393
H          12.82347402523716   -6.87809725449383   -0.75853242128578
H          12.21707330787515   -8.73472403126395    0.73970728190394
H          13.32029754058506   -3.85529011748169   -0.48275327975152
H          14.76904412798207   -2.80726773358176    3.81836553059975
H          14.60847396357430   -4.45028271672731    4.49550615470150
H          12.32309033109528   -2.47047747849004    3.98851806710930
H          12.98557258341685   -2.90884263626267    5.56709612114103
H          12.10997283351382   -4.11111762458527    4.60660156482416
H          15.83966856268195   -3.78989979984293   -0.68389131107547
H          15.38081878725789   -7.44505002496897   -2.35763386120190
H          16.51036272723182   -9.04670636391458   -0.40033519853957
H          17.49098557047900   -6.82617361727604    3.13081104396244
H          16.65819503033490   -4.74947326801680    2.10745304171675
H          17.74031344997021  -10.12009945799141    1.58709376781758
H          17.47263111191108  -11.64887346571327    3.72800563546184
H          16.07101193806511  -11.72083377435104    5.88856921390693
H          14.50283310628154  -11.19410407433380    7.73633736015079
H          12.77924231734406  -10.05789876108024    9.28482793768189
H          11.50934595659450   -7.77831100573429    9.57822099494587
H          12.21184883691111   -5.77954849512796    7.35144313580222
H          10.95662542229346   -3.52988757616024    7.54706273995001
H           9.29882758403398   -2.28961009779530    9.07770218625916
H           7.82327628408466   -1.63411302212983   10.78534337599323
H           6.33828948901980   -1.45400925265509   12.88078514595362
H           5.61323892227422   -2.91270773337352   14.99145074852901
H           6.30538236302178   -4.61107175787087   15.12646950703503
