102
 SCF done       -183.408634276720          0.000995213086
C           1.69641166256171    1.71833403652238  -12.13161160409573
C           2.79434525154777    1.00571454594064  -11.83101221551770
C           3.92731926751123    0.73856465848872  -12.66253181404219
C           4.88518516657738   -0.01964461980071  -12.07190630851286
C           4.58518320989384   -0.40563292831162  -10.74337887012795
S           3.03377011703436    0.23025203046683  -10.25698486978280
C           5.36576127372658   -1.18214666716455   -9.89766480258695
C           6.61956709229911   -1.75550026806145  -10.16094709708580
C           7.12373899530415   -2.48209952295510   -9.11034942843301
C           6.29442979984659   -2.51163783461896   -7.98334896368734
S           4.84371793044638   -1.58448523249303   -8.27684423786902
C           6.53823879533214   -3.18664030154979   -6.78357351625293
C           5.69056483659457   -3.20149204882549   -5.70875931778436
C           5.91683616879896   -3.91536906616577   -4.52502608611298
C           5.07748110775372   -3.99155005705239   -3.41539984959012
C           5.54958001484466   -4.81214913372158   -2.40993477755028
C           6.77706802747601   -5.40106339886465   -2.70271609444226
S           7.34138835838399   -4.89566866728851   -4.27055345717444
C           7.50555569396731   -6.31323432902852   -1.91779598450338
C           7.13750064509022   -6.87231419973007   -0.69798823307327
C           8.05479772236741   -7.78385137935266   -0.21060376800948
C           9.16898022894017   -7.95650648569269   -1.02683749147949
S           9.04811796876831   -6.93690675464507   -2.43781980518819
C          10.24113793342327   -8.83598897749455   -0.80710198059936
C          11.34717300833061   -8.94998628871171   -1.59877777004137
C          12.37236487670662   -9.88550887244459   -1.38713020614602
C          13.55402301710598  -10.03341399195590   -2.11010113805178
C          14.35290152232266  -11.07396306601072   -1.67857217380203
C          13.81190941724939  -11.78158955857331   -0.60569625172374
S          12.28099567130640  -11.09443077881192   -0.13044452681645
C          14.31918909264403  -12.91182672991453    0.04630746916333
C          15.53135761961693  -13.57846998797096   -0.15226838790906
C          15.69173940463683  -14.68322241226204    0.64721219555578
C          14.62008663349429  -14.92748048099588    1.52611770902080
S          13.38586379677860  -13.71170381681559    1.28157760752265
C          14.49727806092894  -16.03294243572510    2.35019117324522
C          13.51718218634437  -16.34149144822143    3.29929973398887
S          13.19517540656563  -18.03510100184742    3.59295383959368
C          11.90525587971841  -17.67544982309591    4.71655994457642
C          11.77902952642940  -16.28595825211084    4.87122491110476
C          12.68781201038980  -15.55177179133718    4.11362350799168
C          12.87195245236718  -14.07184156485261    4.32806303537934
C          14.27698430672699  -13.72987498029204    4.30707534925398
N          15.38350101866582  -13.44544185313242    4.33357423810591
C          12.26965912054680  -13.65541573414419    5.67785697825289
C          10.81477503776542  -14.09495035529369    5.70967962769025
C          10.72766406130819  -15.63090535133281    5.73276216035501
C           9.42427708602959  -16.01433598810861    5.22515144059838
N           8.40405842984303  -16.25463088524885    4.77072233869712
C          11.22002077468928  -18.76657678185414    5.27513332480173
C          10.22993634312696  -18.74232793681094    6.22136068472281
C           9.56314109173553  -19.89752528392777    6.64626140829724
C           8.54996532666236  -19.88168092234073    7.57997236205424
C           7.73704316046221  -20.99847415136407    7.99711354847577
C           7.89819462162149  -22.32010195953828    7.65270345184135
C           7.06324575707506  -23.36153203627819    8.10230758215671
N           6.41899141674093  -24.25352752728077    8.43297812033073
C           8.91927776112955  -22.83304739715035    6.82885902938923
N           9.72222564902412  -23.33464910886552    6.17746388080236
C           6.69288711364371  -20.48414841415943    8.88112649126267
C           6.89120646182230  -19.09334540428207    9.05381029264044
C           8.07681495732966  -18.67081387792156    8.28065702218370
O           8.55393351073070  -17.55055518141432    8.26710302943566
C           6.06680483369120  -18.31592803306654    9.82843706263673
C           4.98663550102294  -18.94049580454954   10.46163323833356
C           4.79506034990833  -20.32962306446527   10.28309283509686
C           5.63315300445208  -21.11715912271047    9.50194014509442
S           3.39965523339710  -20.89851187157131   11.15021722853487
C           3.09825090019463  -19.28241357618742   11.73123165779060
C           3.99390433421858  -18.36345524541619   11.30091465270988
Br          1.62817592676165  -18.96020714189958   12.85181031721260
H           1.58704840893409    2.17418147825709  -13.09957413332188
H           0.89986423110378    1.85495505327625  -11.42369066196184
H           3.97839965706932    1.12289062998088  -13.66537879284831
H           5.80136079990229   -0.31653987352813  -12.55042510093177
H           7.12322757526494   -1.63021765144968  -11.10206866864455
H           8.06931114927250   -2.99478164729682   -9.12958880516669
H           7.46571793310900   -3.74262927625105   -6.72362664265793
H           4.76608670022381   -2.64023601572103   -5.76392197985439
H           4.14538724973246   -3.45684043556140   -3.36826990380175
H           5.02875260971181   -4.98931225857866   -1.48659583370472
H           6.21926544486608   -6.62112514870026   -0.19902675058645
H           7.93504072742722   -8.32301531911909    0.71233249273665
H          10.15890366685435   -9.47329848709380    0.06493191992475
H          11.45784481055857   -8.29254869881618   -2.45192858975259
H          13.80449259669405   -9.38370669174076   -2.93014802912025
H          15.29638995413908  -11.33347134687883   -2.12344073528800
H          16.25999909292616  -13.24192690483984   -0.86743765315267
H          16.55982514648568  -15.31749989311588    0.63408127844798
H          15.21607392767195  -16.82126187518793    2.15995700794276
H          12.37310524881583  -13.50276711183912    3.53251805430198
H          12.34535960622720  -12.57288547951466    5.79218502280558
H          12.82490185523253  -14.12508967950895    6.49355137852217
H          10.30046899048168  -13.70851965627492    4.82545230369424
H          10.30969917951264  -13.69721773829982    6.59091552649366
H          10.82750317748242  -15.98314168552352    6.76633051734469
H          11.52999826898603  -19.73654817818803    4.90193349185856
H           9.90429303786339  -17.82151711631829    6.66795534177728
H           9.83588149498252  -20.83508499028272    6.18032087145137
H           6.24552456572985  -17.25781853432722    9.93872471729408
H           5.44109436419977  -22.17165772339025    9.39679081414299
H           3.95799859544828  -17.32144386628975   11.56179196656567
