100
 SCF done       -192.470630065051          0.000615533498
C           1.02632661181073   -6.99903041905175   -9.05777529398642
C           1.64958326610910   -6.13719387743298   -8.24353711866209
C           2.23612092776807   -4.87267746935764   -8.58731200533868
C           2.79818283891989   -4.21867342332070   -7.54833090999235
C           2.70295484698101   -4.90422299486168   -6.30242374209865
S           1.86741152694350   -6.42637038141508   -6.50861538862888
C           3.17225017602286   -4.47814146090277   -5.08255310944113
C           3.85601472514791   -3.27136211677383   -4.78823207342145
C           4.17535819305370   -3.12769655564890   -3.47665989332590
C           3.76132183017628   -4.20738865786581   -2.65078490565030
S           2.96493051282586   -5.42889690610657   -3.61922949597436
C           3.93010477277579   -4.27127874142360   -1.29190236588395
C           3.50773823963191   -5.28967029263965   -0.42975058239932
S           2.73516417750109   -6.76545666884194   -0.92496526685819
C           2.57210266141668   -7.31083455953172    0.73099848113946
C           3.07719525550084   -6.35646455362495    1.62467288357195
C           3.61522452509460   -5.26053622365815    0.95891506254460
S           4.41972320564091   -3.89319596688876    1.77933344995434
O           3.53756716039352   -2.75681724194605    1.75086529711125
O           5.72831034906924   -3.71476261910079    1.20511101348493
C           4.56284435517130   -4.50015508451717    3.48159836619131
C           3.21747960306957   -5.10762391662813    3.81495070128089
C           3.00664795297834   -6.45059366479627    3.11685003366011
C           1.96836884071659   -8.57072014866388    0.93678282853467
C           1.83616931348267   -9.22750084905101    2.11889163229415
C           1.15331105337745  -10.45029401133676    2.29125101030938
S           0.57221181169818  -11.47457503262735    1.01939180108677
C          -0.10316821194389  -12.61526466871586    2.16615245043632
C           0.13810544611696  -12.20496442040718    3.47851349956444
C           0.83748767330818  -10.99966182191159    3.52410626434507
S           1.25751631846367  -10.14084871388710    5.03152062646196
O           0.72578193934036   -8.80266919577319    4.97140856624530
O           2.67528435462275  -10.25877343639008    5.25030972166870
C           0.37017486965165  -11.10727609355209    6.28463326331040
C           0.58658402468103  -12.56353670143100    5.93027379134281
C          -0.23002958632246  -12.97732285513940    4.70570241651399
C          -0.75769585834402  -13.75670569743772    1.64682606377219
C          -1.60065353451161  -14.59194270498633    2.30983598981975
C          -2.18281821448110  -15.73400141112423    1.71109848427644
O          -1.85053995580793  -16.14315375839004    0.46076721794716
C          -3.12372804240934  -16.61697494030594    2.22023973914447
C          -3.94970961552048  -16.92003145761081    3.38867989767650
O          -4.05367472101837  -16.36575118774783    4.45261881677215
N          -4.64407207164085  -18.06847686184702    3.00748400997051
C          -4.35657477058436  -18.54483311236100    1.72989389581623
O          -4.84631684431337  -19.51917858521865    1.22519425794684
C          -3.36151736513065  -17.58856515793580    1.22393381246861
C          -2.55178294315836  -17.27173534837136    0.14637009907373
C          -2.35849240138268  -17.92639158653528   -1.09158192310133
C          -1.45468926002529  -17.50864558707102   -2.01957935632637
C          -1.24634120900642  -18.20207813056135   -3.23156598312347
C          -0.31777351953092  -17.85302707808102   -4.17342209687882
C          -0.04053195363164  -18.54007229311361   -5.42139187216983
C          -0.70169542893446  -19.62815182143896   -5.93077703933867
C          -0.38234409562161  -20.24469458560703   -7.15908381910553
N          -0.17302981420045  -20.79045987466966   -8.14716220960418
C          -1.79457971949553  -20.28673213968651   -5.32877545636463
N          -2.68705416778758  -20.87912819803120   -4.91536157113001
C           1.07561726326986  -17.85634495318264   -6.06682529265434
C           1.46468446175995  -16.75698526488227   -5.26347022956534
C           0.61255595144977  -16.70081096584769   -4.06024583397372
O           0.68018208486341  -15.87539774677887   -3.17377468832488
C           2.49280661664562  -15.91282069621443   -5.60634209225534
C           3.17476377228727  -16.16695736564040   -6.80042912481731
C           2.78300759533364  -17.27036456044485   -7.59572802856348
C           1.74142458695600  -18.12205490278969   -7.24953905577777
S           3.75956880389159  -17.40529181131350   -9.02660462336278
C           4.66791774568043  -15.99726223933954   -8.54350718428855
C           4.26300192633112  -15.45244777739613   -7.37169032527142
Br          6.06431050526102  -15.37921976342251   -9.63211644967920
H           0.91543051032387   -6.78262524506037  -10.10567620816011
H           0.61969470208582   -7.92542017422604   -8.69593632951950
H           2.20773641724396   -4.51231854146425   -9.60021442554108
H           3.28046913623886   -3.26061977530357   -7.62383908906769
H           4.08700590669002   -2.54849404062833   -5.54962544506590
H           4.69041132323453   -2.28154030272176   -3.05835677526411
H           4.42837473266258   -3.44047623889338   -0.81094733714425
H           4.80173824898754   -3.64073220553672    4.10205352088559
H           5.37795708770163   -5.21793775500661    3.50021454055176
H           3.12123093003966   -5.25882856055415    4.89193686458169
H           2.44492701584851   -4.40145437666977    3.50055541743860
H           2.02684468129828   -6.83694041287899    3.40798912866216
H           3.75740099444484   -7.16424886799918    3.47286562971971
H           1.57218475723280   -9.04326002782422    0.04500106666556
H           2.23514031840208   -8.82737187966182    3.03408492045047
H          -0.67222026997773  -10.80445175714427    6.24171201684674
H           0.79993133064671  -10.84283422278996    7.24689761867393
H           1.65164047837358  -12.70713665034015    5.73189913302650
H           0.30826057816990  -13.20215332292252    6.77130770378799
H          -1.29432282753526  -12.83493096812014    4.92066182265014
H          -0.07279634517857  -14.04133520845599    4.51366120192383
H          -0.57815619797503  -13.95554757636613    0.59769932432198
H          -1.91271236856314  -14.41784960145821    3.32554322516459
H          -5.30714693181022  -18.52631312651750    3.61661238205379
H          -2.96586970647404  -18.80636261897015   -1.25407729544490
H          -0.86170191150840  -16.62750627743855   -1.82308119023249
H          -1.86316327956501  -19.07560911909842   -3.39915328113319
H           2.76303692807578  -15.08362647535073   -4.97138312368189
H           1.48361566250448  -18.94817670130970   -7.89053558687952
H           4.71139673063872  -14.58290665878148   -6.92693846897479
