89
 SCF done       -158.548480845486          0.000554880365
C          26.27131444514738   -9.31739835571053    8.00583177960222
C          25.34000316223488   -9.03621307195111    7.08099623624803
C          25.39308481975291   -8.04442173153053    6.05014009088088
C          24.28926198767535   -7.99680652202203    5.26414334655255
C          23.28898897308403   -8.94042399312685    5.60430850514115
S          23.79566332582354   -9.89753057813439    6.97847735926390
C          22.06534308684800   -9.13233415126833    4.98669660201384
C          21.51109140014143   -8.41561629692893    3.91038484991330
C          20.26055281180523   -8.84300684178975    3.55063435381518
C          19.77486692510689   -9.91109890536093    4.32045534170975
S          20.95798753417470  -10.37958036386683    5.51811249742379
C          18.51711708803681  -10.49790307321095    4.23202138955071
C          18.05940560805886  -11.51537675091814    5.03614939428099
C          16.74079584532728  -11.96981583597667    5.02772448498465
C          16.17932459569575  -12.99879850177633    5.79045154686759
C          14.82842010393035  -13.17382277494185    5.58617928517578
C          14.28130788222910  -12.27349291667564    4.66716428901729
S          15.51358889581392  -11.21152896902087    4.04280863847406
C          12.95941998398218  -12.14018494483649    4.23210404364716
C          11.86012384395077  -12.96901174133504    4.48353389702447
C          10.70931314947131  -12.55862406238779    3.85510433927878
C          10.85997578847079  -11.38429814463593    3.09942144787304
S          12.50216549695592  -10.80263279002896    3.20945929018115
C           9.90261364399916  -10.74240467294221    2.32633683158254
C          10.15442356309731   -9.56627745012950    1.63521131542123
O          11.36201785447254   -8.93468102311364    1.76388080300647
C           9.37650373917885   -8.81867067991785    0.74377269141871
C           8.07481380619208   -8.75731718855033    0.08387730875373
O           7.11090474125403   -9.47923899020277    0.14673026036737
N           8.16137958456302   -7.60594108568954   -0.70079010909836
C           9.37387304815893   -6.92246799901662   -0.61340795237895
O           9.64124249567377   -5.90933722190549   -1.20989286061236
C          10.15241710844037   -7.72643238964403    0.32865896954387
C          11.38496690714755   -7.80744218843384    0.98495107933808
C          12.48725029806047   -6.95853120346179    0.97173381271299
C          13.58349888417561   -7.12584954878569    1.79889293100651
C          14.67539468356716   -6.27715767078159    1.81887043013146
C          15.73296697431791   -6.38073411815301    2.71773624342688
C          16.87737934547697   -5.57330677780023    2.78252582617162
C          17.73764883193441   -5.89738322643437    3.80584007539486
C          17.29623349146068   -6.96619477561075    4.59122786628007
S          15.77206342005113   -7.57460380068386    3.99656322889821
C          17.91772881692610   -7.54768276391381    5.70137766903486
C          19.16716440469125   -7.25829218068946    6.25920223087009
C          19.50522973811312   -8.08049033700266    7.30947899378769
C          18.53518858459215   -9.04218288586721    7.61453727893189
S          17.14546040337578   -8.84310349150941    6.57209426720235
C          18.61597149885044  -10.06935706042898    8.55219216747195
C          17.64802337652604  -11.03195339851622    8.71741503559281
C          17.71550817546089  -12.09221498747853    9.61576807621623
C          16.75246051471810  -13.09723758703150    9.79610524902193
C          17.07507049972640  -14.01954577182153   10.75630926083466
C          18.31426000827037  -13.77878170343905   11.37751228619037
S          19.06318834827931  -12.34761358960589   10.70043894045595
C          18.91855542906593  -14.51013336824863   12.38601391356819
C          18.41636245234318  -15.67115863613313   13.02446161382170
C          19.22486863481122  -16.17172498711921   13.99069707922765
C          20.43633120280781  -15.43420151645784   14.18480168641165
S          20.47204933170917  -14.06958414340472   13.05704183288894
C          21.42257568147868  -15.68216608790568   15.06108938981963
H          27.19725921875131   -8.77099694567096    8.03453443484938
H          26.12490500235164  -10.08906117531864    8.73879390104865
H          26.25495536657962   -7.41091898197680    5.93938683174644
H          24.16137518491695   -7.31556498498488    4.44158071752677
H          22.03293629580235   -7.60626172586499    3.43243323762106
H          19.67504045278293   -8.40816729404889    2.75945726681971
H          17.84007569807608  -10.07865204685407    3.49757393660597
H          18.73881530345237  -11.97506509090938    5.74287044700473
H          16.77138342286446  -13.58752663430816    6.46960440172897
H          14.23248587272288  -13.91545460032665    6.08770187310310
H          11.93089300138142  -13.85103908079612    5.09486104043315
H           9.76651937379003  -13.07243609608426    3.91658039237856
H           8.91735276991522  -11.17091556024390    2.23435503910913
H           7.40156716034250   -7.29042449490700   -1.28579420726204
H          12.43243331153390   -6.11807588003911    0.29578021219040
H          13.57343529328686   -7.96239641767715    2.48699641801983
H          14.71884279951022   -5.46393891008484    1.10593983985037
H          17.04681070503837   -4.77510377334495    2.08141105977551
H          18.66082804185293   -5.38271553495316    4.00400574030590
H          19.80258242646162   -6.48081663268547    5.87452879030243
H          20.43516190991964   -8.02414518736011    7.84750331029057
H          19.51302539636156  -10.11656378750073    9.15605776143951
H          16.75981750521396  -10.98058923375992    8.09908675365524
H          15.84473641228224  -13.11482100931960    9.21824400290371
H          16.45216996754367  -14.85348171130229   11.02499202099834
H          17.46875051452654  -16.09826114537933   12.74785789967865
H          19.01015878704384  -17.04360350377955   14.58236859909280
H          21.36250846644145  -16.52135174380813   15.73109836077024
H          22.29437806290192  -15.05723299173961   15.12256118614847
