86
 SCF done       -149.896316786200          0.000398678754
C           7.83143174549201  -14.77255901343709   -5.37015222881812
C           8.47670253709027  -13.66421457138705   -4.98098885027245
C           9.89075143464924  -13.47833657644713   -4.82863379623558
C          10.25133349588468  -12.24298140645340   -4.41411943552510
C           9.16352981616108  -11.35244060061025   -4.20289277438712
S           7.64617846815114  -12.15673603261196   -4.56182213799829
C           9.21955011414048  -10.04776358708132   -3.77435160854161
C          10.36572617386609   -9.28550462411005   -3.44375696376306
C          10.08577766736937   -8.02043157116322   -3.03324097206363
C           8.70361347538932   -7.70137467487036   -3.01088389835500
S           7.76818679520190   -9.08329672640013   -3.55034629703880
C           8.17078221829992   -6.50241422384538   -2.60961524112684
C           6.81488345655823   -6.14176847821055   -2.55715854547859
S           5.53193018946605   -7.19240949655855   -3.08933269113513
C           6.28925417078876   -4.94062335715401   -2.07882195592548
O           7.04694339210612   -3.91756080435360   -1.57690116415181
C           4.88498522045788   -4.85675771035010   -2.14274916520412
N           4.14649601293544   -3.79720305009786   -1.65512191287027
N           4.66331788040722   -2.49054685831442   -1.57591685008913
C           4.30800964863841   -6.01123457062441   -2.68213680725956
C           2.94328760449119   -6.27999205969750   -2.89695829839411
C           2.47518231742710   -7.42209630265038   -3.46962476954519
C           1.11140066055581   -7.71273569404647   -3.68868651945074
S          -0.16291052365049   -6.64186277993783   -3.16925995915401
C           0.58002826062000   -8.83066297686601   -4.31564332413379
O           1.32831004574883   -9.84282929225952   -4.84572221060445
C          -0.83308847623711   -8.84708461385925   -4.37142557423514
N          -1.56852736884290   -9.81459628194827   -5.01814235793813
N          -1.09907628273244  -11.12423922400069   -5.22029342239680
C          -1.40273208061020   -7.72209328824531   -3.77081911871545
C          -2.76975413863142   -7.43106801053423   -3.60756053106599
C          -3.25470591123948   -6.31503015828007   -2.99960732216232
C          -4.62779515152227   -6.05214225820676   -2.79713414653004
S          -5.87184857680210   -7.16533936507259   -3.29465925806890
C          -5.19184401705339   -4.93683128998266   -2.19043733586924
O          -4.46300045878621   -3.88748011710012   -1.69880596765686
C          -6.60144225676138   -4.96636037922347   -2.11507169307792
N          -7.37914074263547   -3.95988921415177   -1.57319747320305
N          -6.89113040418821   -2.64886705032271   -1.40598365033781
C          -7.13877583151658   -6.14525917002984   -2.64709218971275
C          -8.46362357296580   -6.60733886317713   -2.72828685474585
C          -9.52847890556956   -6.17215045484339   -1.98256428559037
C         -10.85951471390609   -6.60355110928810   -2.10099015828548
C         -11.45015888710824   -7.40839290586337   -3.04759736812049
C         -12.82329277582620   -7.76332625506730   -3.05034472704443
C         -13.21099445625831   -8.54490842424166   -4.09343010859346
C         -12.16442896466773   -8.86262359890360   -4.99090462435095
S         -10.66770827100456   -8.12700013429920   -4.44738791981053
C         -12.22882665260712   -9.62993249768884   -6.13025415412099
C         -13.36820091271402  -10.29020163573504   -6.66379976108475
C         -13.13399151472395  -10.97745345915771   -7.80481092052845
C         -11.77816032264187  -10.91442875341609   -8.26742499939690
S         -10.82982034673492   -9.92119113366421   -7.14942100920564
C         -11.25486161132288  -11.49020128204837   -9.35923158223060
H           8.37654660649822  -15.66716804476276   -5.61429536546650
H           6.76054062719228  -14.80528726872328   -5.45031610964607
H          10.57445919388172  -14.28221251150844   -5.03635652450299
H          11.26765687963812  -11.93250646722219   -4.24715237360722
H          11.35878857088490   -9.69170201698430   -3.51505530738009
H          10.82930471760720   -7.29953337999805   -2.73948453327434
H           8.89408057826769   -5.75717149637746   -2.29349962790522
H           7.97376325887481   -4.17964020967984   -1.56679096729539
H           3.17589587581027   -3.79060304296508   -1.93961760441781
H           5.13684353505569   -2.22157391357952   -2.44050650715688
H           5.35439655667567   -2.45674037031902   -0.83065276830213
H           2.22617851815887   -5.53088860589533   -2.58814284112334
H           3.20225739356807   -8.16609381371824   -3.77629760635401
H           2.26516577809020   -9.65075520976034   -4.72486077950443
H          -2.56307919980949   -9.79898505862601   -4.83560155000635
H          -0.70517436474053  -11.51772066510346   -4.36376882203778
H          -0.35415056275934  -11.10402184395812   -5.91257598935687
H          -3.48225987791601   -8.15471405896007   -3.98115269962439
H          -2.53925666036950   -5.58384634400999   -2.63914912837929
H          -3.52415570964376   -4.07648036203876   -1.80550228734542
H          -8.32880016359070   -3.94688898576629   -1.92696666710622
H          -6.39912393421927   -2.32049614657131   -2.23902938290146
H          -6.22030683637647   -2.64602757497870   -0.64187231163855
H          -8.61014365186916   -7.43352090481880   -3.41004263128950
H          -9.34244609837468   -5.47447172078358   -1.17788814992402
H         -11.54017846794451   -6.23402897986787   -1.34280568611424
H         -13.48458489465000   -7.42253768934395   -2.27240456195512
H         -14.21597390670458   -8.89584504716544   -4.24522177668904
H         -14.32640113837296  -10.23162218910540   -6.17805664082529
H         -13.87379646125200  -11.53718933332555   -8.34938393020385
H         -11.86806724043670  -12.08529878247444  -10.01264393108941
H         -10.21755759344985  -11.37821999325560   -9.61557804609549
