112
 SCF done       -175.701230723296          0.000887192225
C          -6.47833523042984    0.43519226363548   -2.69683039527200
C          -6.65332309935304   -0.28184056891733   -1.57819391185746
C          -7.15704449111699    0.16669957488631   -0.31149689987278
C          -7.22782111214758   -0.79362412837301    0.63778385916619
C          -6.79260217611735   -2.07697459986642    0.20947050480860
S          -6.27251256373082   -2.00792685047558   -1.46698493734303
C          -6.75951559795721   -3.24441886933267    0.93073812938721
C          -7.12715858757343   -3.46152339481336    2.28129949658148
C          -6.97461185635797   -4.74591062548512    2.69429781615113
C          -6.47975083266684   -5.64434542385127    1.70763089229548
S          -6.22051306996007   -4.74976507040681    0.21158917844846
C          -6.22363061532461   -6.96843163241730    1.93458939371348
C          -5.72600476201002   -7.97038062274994    1.05801740039180
C          -5.35895659359870   -9.23632003055829    1.59917945435442
O          -5.56290518934273   -9.39630995331551    2.93698510707451
C          -5.24451493018525  -10.63312160479474    3.53966649121209
C          -5.62445427590538  -10.53894539999207    5.00947505744316
C          -4.81078576733719  -10.19661680221565    0.77941818658784
C          -4.62494230489736   -9.98806635091225   -0.59651210910703
C          -5.06204533506176   -8.74988386639364   -1.15316551954463
C          -5.57962392246838   -7.78071714032209   -0.32412565851585
O          -4.89852306668183   -8.61207781289652   -2.49316269082439
C          -5.26147033580198   -7.41308184822742   -3.15309985688805
C          -6.75839772429584   -7.30276561286597   -3.42205672012503
C          -3.97610772556719  -10.91164952818615   -1.46063235916605
C          -3.40672952756040  -12.11749195447421   -1.16548408744043
C          -2.63751667370884  -12.88792201320977   -2.05897413756724
C          -2.14001595084120  -12.52138679150779   -3.29127713642128
C          -1.32909768388157  -13.32072093682605   -4.13657344284912
C          -0.90975300648797  -12.70787629562524   -5.28259595712248
C          -1.37130865358235  -11.38322746813340   -5.41493356116795
S          -2.35439934491897  -10.94905576832483   -4.03366424736299
C          -1.20103952292935  -10.44313879320550   -6.41178511427441
C          -0.51130551691572  -10.50273723259608   -7.64108737040800
C          -0.59523392442772   -9.35969350377536   -8.37720613325721
C          -1.36952911463093   -8.32414941665307   -7.78212568053061
S          -1.94102589954296   -8.86810965200802   -6.20777732976986
C          -1.73816818810901   -7.14252551484697   -8.35801053870898
C          -2.58770350728896   -6.16661429560373   -7.72634967587388
C          -3.63017568831221   -5.45662650618622   -8.36440194524520
O          -4.01308154576842   -5.51927209715440   -9.67838513970960
C          -3.09265268953635   -5.61752102280807  -10.74345283027639
C          -1.99720960077744   -4.55825379830488  -10.69614774140931
C          -4.50178193314222   -4.70533184528929   -7.58791174143375
C          -4.39731577209566   -4.57922724438494   -6.20330833399162
C          -3.28684714435189   -5.20950850862792   -5.57800815231610
C          -2.42961392108359   -5.96862037950095   -6.34033212539773
O          -3.14739136822152   -4.99797996800474   -4.24442681829842
C          -2.07412045514242   -5.60468403912217   -3.55037896706906
C          -2.15323073687847   -5.15565702691964   -2.09871458515332
C          -5.34023565397387   -3.86695583599686   -5.39845593272070
C          -6.35468548877802   -3.07458570957075   -5.83805010724256
C          -7.24667388844481   -2.43616363334616   -4.95745948861241
C          -8.22762437497009   -1.55744410271624   -5.32951917263117
C          -9.13239882571259   -0.88374977632586   -4.46886940624958
C          -9.98755289049156   -0.03928175529361   -5.10116568521409
C          -9.81725512109322    0.00858253749535   -6.50831820410698
S          -8.52432268915221   -1.07043846791592   -6.99547276019621
C         -10.51801289445099    0.76673712860310   -7.41485426330342
C         -11.57452372782699    1.67953594791947   -7.14578613794991
C         -12.07699469149848    2.29313601775050   -8.24042774795697
C         -11.45292556019192    1.91084511835205   -9.47428679255046
S         -10.18634178777763    0.71987883889960   -9.13820594862960
C         -11.73795271887757    2.34905277735606  -10.70845431633494
H          -6.72560330317606    1.48183775203514   -2.71985148185504
H          -6.09367226810371   -0.00554099416550   -3.59833350696661
H          -7.44505599352835    1.19358396112356   -0.17027644934257
H          -7.58307225926541   -0.63085460932705    1.64049303679525
H          -7.48706637692819   -2.66293297195924    2.90501576785219
H          -7.20074690284822   -5.09245305366557    3.68773980522464
H          -6.39920937712700   -7.30239930463339    2.94884223322475
H          -4.16924051584296  -10.83690407556650    3.43875810113671
H          -5.80420761009456  -11.44498041778043    3.05479216906854
H          -5.07026767322906   -9.73445319350737    5.48598060523691
H          -5.39640197982665  -11.47512752729329    5.51121108426437
H          -6.68731177206516  -10.33268620931852    5.10499550930449
H          -4.49802537559630  -11.14385301430938    1.18666588590943
H          -5.90188436149248   -6.84233802955905   -0.73836677680545
H          -4.72421561400027   -7.46229309486184   -4.10483772991163
H          -4.90632264549031   -6.53777837383568   -2.59887445001725
H          -7.09683458273461   -8.16678116323291   -3.98797598726979
H          -6.95154440451909   -6.40331757588098   -4.00075611390749
H          -7.32276157008616   -7.25462238629279   -2.49420968275150
H          -3.93491578815151  -10.56651336537914   -2.48020442393127
H          -3.53053050313669  -12.53996329702050   -0.17641536957012
H          -2.35290720657769  -13.87880895652110   -1.72514830064816
H          -1.07380640637434  -14.33148996408616   -3.86763176105866
H          -0.28342246942363  -13.17135708357993   -6.02453059021235
H           0.01598239387276  -11.38780912550682   -7.95166517143605
H          -0.14085553376429   -9.22780589581907   -9.34411542260671
H          -1.39449690266518   -6.98911153651944   -9.36909839243706
H          -3.71438481543905   -5.46762998640979  -11.63163830777163
H          -2.66621144296357   -6.62748341268237  -10.80381239914065
H          -2.44410198156375   -3.56686938383157  -10.68900213202473
H          -1.35829435711131   -4.65144048750764  -11.57046765383886
H          -1.38960124047793   -4.66547229565960   -9.80026411940631
H          -5.32175744791839   -4.23584428796393   -8.10710327336309
H          -1.56952693612057   -6.42396162542977   -5.87790326986831
H          -1.11702711574947   -5.28720073842779   -3.98698556529421
H          -2.14851827333158   -6.69830349591522   -3.62020937333718
H          -2.11405492728744   -4.07102959130893   -2.04450405879108
H          -1.32116684363181   -5.57300011830271   -1.53946992223727
H          -3.08298407914387   -5.48804211325527   -1.64561890670559
H          -5.20547586408157   -3.97307464618428   -4.33022892441871
H          -6.49822605340707   -2.89294918322112   -6.89476424974348
H          -7.14448288237821   -2.64236657835575   -3.90013448514374
H          -9.11107588838217   -1.04881323327030   -3.40583761026774
H         -10.73551407613095    0.55076275054379   -4.60230769309578
H         -11.92478834351338    1.84860700557726   -6.14262257823303
H         -12.87649592778578    3.01282604075766   -8.23071844318788
H         -12.51602249545468    3.07475217557160  -10.86687080619233
H         -11.20509315571560    1.99489559381596  -11.57151996483507
