112
 SCF done       -178.738312259642          0.000911762016
C           5.99464878463759  -26.33158031458208    3.68507220267652
C           6.46695979965957  -25.33604708793446    2.92005648030913
C           6.72940919875952  -25.35592936498526    1.51183948307614
C           7.20780228553828  -24.18989581449519    1.01675468009639
C           7.36091880982458  -23.16244723416944    1.98291771950480
S           6.86974647210184  -23.73540397866753    3.56237576197905
C           7.83191196245463  -21.88072680384444    1.77560596591589
C           8.26109939114534  -21.29830344012275    0.56560800677249
C           8.68499537573398  -20.00556550004613    0.69525666939448
C           8.61620962097404  -19.50134417924259    2.00747596988020
S           7.97969125139696  -20.72697124189273    3.08543198286616
C           8.99582734435617  -18.23784178916053    2.43315841404618
C           8.91663810338374  -17.79076487674143    3.73725188691814
C           9.33079808816109  -16.54127808149137    4.17313684280446
C           9.28922494237148  -16.04880279120727    5.48861647793709
C           9.79814620642218  -14.78655097778849    5.63539610016157
C          10.26606213556260  -14.22169797391152    4.43571545976935
S          10.03086172871794  -15.33850913831528    3.10849924824673
C          10.86064682772087  -12.98355405718184    4.25177288121562
C          11.16445532712457  -12.01002485839662    5.22379358409853
C          11.79177735906518  -10.90235138159997    4.73537146611277
C          12.01907559675927  -10.93766594415476    3.33808544013131
S          11.37835929671432  -12.44137135648074    2.66884959619347
C          12.64983902687145   -9.99372086731655    2.57968823930869
N          12.83427229473763  -10.13562407052856    1.23953249996557
C          13.43231642101869   -9.29029296479676    0.36393433305340
S          13.95593422146832   -9.96166655577717   -1.15819276677330
C          14.63366167498544   -8.42258782408633   -1.59228833329722
N          15.23987807645699   -8.30953654721545   -2.83673744084276
O          15.72561545611802   -7.23011552943873   -3.14146966354523
O          15.24658900034770   -9.31122814447426   -3.54154689232642
C          14.45847473485482   -7.46765027495927   -0.62258896326073
C          13.76024911815172   -7.93413017103775    0.50235756589029
C          13.37586655603434   -7.08672305975091    1.61161217405557
C          14.08994426982695   -6.02039961561954    2.00446675121635
C          13.78463284152916   -5.11852986293915    3.09343943605763
C          14.71549097810942   -4.11170149721882    3.39374433005007
C          14.48468348058511   -3.25417246340872    4.43976325142327
C          13.31927709986265   -3.37111300140382    5.21630005970227
C          12.38362418673085   -4.35235809070375    4.92136932241655
C          12.62237345428519   -5.21360364302449    3.86871685770600
C          13.35424836498705   -2.36136434611020    6.25299756979894
C          14.54076407855787   -1.62060531627385    6.11502370780505
C          15.34876563933366   -2.12141784657271    4.94058200790528
C          15.51466101212532   -1.02883867518080    3.86772986896819
C          14.18294453256717   -0.46902867066479    3.38261232760065
C          16.73471029214523   -2.62459239260868    5.38354776640766
C          16.65501216756781   -3.70997393377084    6.45030730448481
C          14.84236662041404   -0.60235126814304    6.98383560605631
C          13.95827192971877   -0.29392227980088    8.02899936325871
C          12.77645376373804   -1.03940009461197    8.14763697984248
C          12.46584022617287   -2.06321935630410    7.27557791022262
C          14.21912165403874    0.75013011223920    8.99372610762524
C          15.28885662389850    1.56629666784422    9.02141724172270
C          15.53277919018005    2.58543374762153    9.99941035395462
C          16.63738119293185    3.42857213776559   10.00699932546092
C          16.54487413644516    4.30370564997788   11.12694702553595
C          17.36834639187708    5.30864896912502   11.57799378744497
C          16.98258354296965    5.99396145536144   12.74138335056150
C          17.57865014426471    7.03704921971296   13.44348726190561
C          16.76932084974279    7.36824153702354   14.56897043996277
C          15.66791309436423    6.52641230776356   14.56391918290416
C          15.76262086306730    5.65282392217321   13.43843575946769
C          14.93884052427554    4.64970820128631   12.98782362396314
C          15.32388307256528    3.96325124046892   11.82280317961977
C          14.72235800395499    2.92124499771468   11.12590837665851
C          17.09968228756639    8.41205613460642   15.51084373585161
C          16.37972401707742    8.75031087619742   16.57667920571473
H           5.76168962087683  -27.28995954021237    3.25522245886489
H           5.83441521165304  -26.20695899802477    4.74019036531382
H           6.54883572845462  -26.24326911034959    0.93155789982772
H           7.45921814948226  -24.02935109362314   -0.01657686890935
H           8.24871032119144  -21.83868329178059   -0.36362866811381
H           9.04774566544251  -19.40240074709633   -0.11863774984308
H           9.38758409627242  -17.56505835197662    1.68007025249578
H           8.51377442738195  -18.46032973013174    4.48698951626996
H           8.89097320047360  -16.63847061484454    6.29568173061613
H           9.84754255678678  -14.26069862595957    6.57188941726394
H          10.91902797281850  -12.15424445231856    6.26036527749202
H          12.10262878002555  -10.06344345260968    5.33172060680167
H          13.05725051689435   -9.11195002259293    3.04579117776746
H          12.56643793379329  -11.03970299288386    0.86382950433625
H          14.79443115065794   -6.45560435134990   -0.75447445793321
H          12.44976109154733   -7.34195982637585    2.10587862049555
H          15.02211037686015   -5.81349766523471    1.49440406975973
H          15.61306362064601   -4.02579568749085    2.79745574138615
H          11.48105457176402   -4.44566526676091    5.50730289758369
H          11.89113905249142   -5.97500020217758    3.64224550716463
H          16.06094505832571   -1.44983710063938    3.02084187372832
H          16.11721558669549   -0.21883522629883    4.28433781727217
H          13.57204155656280   -1.25542820399072    2.94481121257065
H          14.35096032440357    0.29665767824926    2.62868499538924
H          13.63040051379405   -0.02496101947750    4.20770625567291
H          17.30687085959243   -1.77878388724450    5.77052564366145
H          17.26303183648288   -3.01223424895278    4.50977754215246
H          16.14944751429551   -3.33750868771648    7.33850986413607
H          17.65462848431884   -4.03278283286104    6.73237980840234
H          16.10567571963505   -4.57277155036539    6.07975032276262
H          15.75891725916596   -0.04526613724075    6.86635243053050
H          12.09235980792102   -0.80205871186535    8.95060496022925
H          11.54903919237445   -2.62250802670942    7.39175777430335
H          13.46216282119564    0.85960089477314    9.75945970107719
H          16.05537335278738    1.48209509008325    8.26260973157600
H          17.43634853249734    3.42711444631691    9.28760000536233
H          18.28283527447624    5.56812359719185   11.06253186656713
H          18.50298245174978    7.52507798144184   13.18791075266285
H          14.86561552828555    6.51729521160866   15.27792623397723
H          14.02480268697921    4.38946836739151   13.50373482016730
H          13.79721278616449    2.44424289422495   11.39386467557319
H          18.01997619895923    8.94316560440662   15.29941706600847
H          15.45957467746783    8.25100118829915   16.82723788953795
H          16.68786491307701    9.54190607632085   17.23746800649968
