87
 SCF done       -149.649217725125          0.000485410239
C           3.67962976972962    5.78336923500003   -3.88180791736700
C           4.80413284029702    5.16694962479340   -3.48248170662276
C           5.99731277229035    5.75979862208557   -2.96260852302637
C           6.97117794297454    4.86882707768520   -2.64652492787873
C           6.62819981662618    3.51786754379212   -2.88889185725905
S           5.00746267350951    3.40887827705479   -3.53916125238674
C           7.41372999659896    2.39690561590953   -2.66680670564050
C           8.72196632516657    2.34374023340663   -2.15807442190160
C           9.22446587262514    1.07036668841997   -2.06073742690999
C           8.34178001125931    0.06898170683998   -2.48393347881757
S           6.83594097766839    0.78225096582233   -3.01809731365838
C           8.58020731623119   -1.30581866079707   -2.49684296978622
C           7.68322320903474   -2.25397750450445   -2.91756879418084
C           7.92565743726497   -3.63104913161730   -2.92925051274997
C           7.05155104981824   -4.63672975611959   -3.34313887026773
C           7.57059915584021   -5.91069004868683   -3.24139705145607
C           8.87242645518312   -5.94612760672932   -2.74369084759364
S           9.43818874815553   -4.33224845972867   -2.39994910619161
C           9.68386455738704   -7.06969032068378   -2.52419674328931
C           9.37597526064627   -8.40988315166740   -2.75213808734891
C          10.40438114857364   -9.27484653984420   -2.43856147797720
C          11.55058368776616   -8.64494427277317   -1.95499430289940
S          11.30429932720640   -6.91452609978348   -1.89781014043294
C          12.75196543175073   -9.25071908410578   -1.56897999034308
C          13.84828165622955   -8.57331320857240   -1.10528060579395
C          15.06295766277408   -9.16023355217088   -0.74015887240224
C          16.20009113102838   -8.49254998508634   -0.27306521921456
C          17.26520181444452   -9.31847500948412   -0.00639964414297
C          17.00574373993738  -10.67365682657068   -0.25533519421372
S          15.36869940181241  -10.87978323793195   -0.83136151233615
C          17.86882173214029  -11.75461023603352   -0.10606008247433
C          19.20809091468732  -11.70350552805014    0.32820270416491
C          19.81498490528347  -12.92410582540070    0.35802234436529
C          18.97696934629323  -13.99146453721269   -0.04995249880424
S          17.38404189758551  -13.40430775307440   -0.47016556264151
C          19.29824309043168  -15.31697337923265   -0.13427720956660
C          18.33496317051612  -16.27526867446479   -0.56482531517062
N          17.11574047716462  -15.79688060983785   -0.86245826646771
C          16.20080218540037  -16.66161825197653   -1.25590820438055
C          16.47068528186363  -18.01241048973646   -1.36593678422136
C          17.77575315707805  -18.43542319999844   -1.04440977665555
N          18.69276346350724  -17.55571650417615   -0.64471837967260
C          18.15119191836895  -19.82356078316534   -1.14170944500534
C          19.40234048188672  -20.25090510548848   -0.86644112321096
C          19.83615458305129  -21.59644609337957   -0.94834476252340
S          21.48700020516167  -21.99412231650885   -0.57396231646399
C          21.26897665849296  -23.68257058162793   -0.88113025282179
C          19.95344913205374  -23.92778710374941   -1.26035678370384
C          19.14105675409219  -22.75243939317379   -1.30389569298214
N          17.84208689698844  -22.81781823880562   -1.68743511242961
C          17.37412523107871  -23.99984537788832   -1.98160977821775
N          16.05453595396039  -24.10467291217542   -2.33956696541810
C          18.18473430299601  -25.20014189715937   -1.87487689348328
N          17.64079402377483  -26.41749782262545   -2.20061985568293
N          19.44348966704920  -25.15366333347310   -1.53975469810133
C          22.30668541065258  -24.65634406896815   -0.74962350547298
C          23.55951732873196  -24.39671733311962   -0.37589771686763
H           3.59528238388992    6.85451694234223   -3.83305633786532
H           2.83788033277417    5.23375237676468   -4.26064558818857
H           6.07793489820279    6.82591896691100   -2.84680909221728
H           7.93095745841763    5.14097685232219   -2.24398904160910
H           9.26459272179781    3.22818174599197   -1.87704409679251
H          10.20864213372004    0.83616338360377   -1.69400312395052
H           9.55160066664536   -1.63050442954548   -2.14424223826664
H           6.71104568506150   -1.93131942804814   -3.26917138558383
H           6.06341217533600   -4.41573588063755   -3.70672369381406
H           7.03428135248708   -6.80083570628643   -3.51680802918555
H           8.42330227742081   -8.72516826367488   -3.13780930861381
H          10.34816179714204  -10.34324119941127   -2.55089136468697
H          12.80192916971416  -10.32870934093206   -1.65582325031708
H          13.79018187603611   -7.49523767928554   -1.01490132261114
H          16.21638317420221   -7.42433301717514   -0.14441681617232
H          18.21634080718640   -8.97385529046229    0.35720219606210
H          19.69373934312891  -10.78368404199040    0.60336189198796
H          20.83397010268623  -13.09605474131191    0.65702886897034
H          20.28516707643692  -15.66661480138128    0.12123426705818
H          15.22633896340249  -16.24859470239695   -1.48685600628334
H          15.72088638143472  -18.71761880632767   -1.68575678450376
H          17.39471727578654  -20.52815615541778   -1.45103114295109
H          20.13786854769800  -19.51818946685191   -0.56216829221006
H          15.60868902386591  -23.21411524566754   -2.50326100421094
H          15.82037631094939  -24.82439097374961   -3.00450493272835
H          16.67370137293966  -26.56073999357179   -1.95575809251104
H          18.24898554664470  -27.19468269480988   -1.98748504729225
H          21.98862841487099  -25.66311851707035   -0.98631798294413
H          23.87747212944058  -23.39412875163227   -0.14052767120012
H          24.29815524061555  -25.17409692326374   -0.29714816929564
