94
 SCF done       -162.870525630305          0.000714935537
C          30.93456401126927  -13.31492315003532    4.96324838683704
C          29.95210569306530  -12.39938813194132    4.89146170553714
C          30.03001724841137  -10.99829860911626    5.15713655643024
C          28.85515147398980  -10.33358918355851    4.99166899113737
C          27.77707963414700  -11.15001722838669    4.58741590393871
S          28.29437546139166  -12.80990638738736    4.42363132639497
C          26.46771194664406  -10.75214206508965    4.32525070030283
C          25.92253076039859   -9.46637972761788    4.40852642318029
C          24.59093090053864   -9.40881254678483    4.05659892766073
C          24.04471230790669  -10.63702693236292    3.68844067018581
S          25.25193800709865  -11.89378716360242    3.80129881507718
C          22.73124779174521  -10.88161743084740    3.25182402630733
C          22.24958868550187  -12.10425531189662    2.89269732729430
C          20.95499612803464  -12.34880319864751    2.39184605144396
C          20.43807172424817  -13.57133335298097    1.98705967728497
C          19.14914018578791  -13.49426202838386    1.48007020621419
C          18.63119263357187  -12.20897831481040    1.48100669907802
S          19.78044392110261  -11.08276009527920    2.14559126681029
C          17.37935189489536  -11.77598640158081    0.97994535692913
C          16.44322426457009  -12.53167228240143    0.28634171841381
C          15.35938650605670  -11.78622038971442   -0.14399045302596
C          15.40909787719202  -10.44533295354385    0.22506288358452
S          16.86095001391317  -10.13017739776719    1.13375707950662
C          14.44936587319953   -9.49147094545838   -0.18037873237379
C          14.26908997020254   -8.18587594708818    0.16661139619903
C          14.96661389641272   -7.33664601755057    1.10440621044709
F          15.87141662411220   -7.77172250063134    2.00419529927409
C          14.54854401577955   -6.05411043883444    0.98334897531983
C          13.56014409651924   -6.01645316216557   -0.05321939286282
C          13.33876412554501   -7.27837711072770   -0.52656947139924
C          12.44159234410986   -7.62488873609974   -1.59585264730932
C          11.52612350415963   -8.77779406051123   -1.64983851612343
C          10.87191175849705   -8.73071694199598   -2.93216140678933
C          11.31168682314150   -7.60791332008020   -3.55217255980799
C          12.26583439538834   -6.90876933551962   -2.74509916640778
F          10.93251878630355   -7.18215668675741   -4.76672938748745
C          11.24326665690128   -9.61183770293054   -0.60551997847222
C          10.32385787096826  -10.68115917428277   -0.65940246040608
C          10.01509962990202  -11.46719119340943    0.40687422747576
C           9.10357575293782  -12.54565579175644    0.36067400259284
C           8.69691437833334  -13.35769534284453    1.40705085788306
C           7.78493501852555  -14.33783622826309    1.03732876932832
C           7.46587284728200  -14.31157059146999   -0.31108943505992
S           8.31794263261682  -13.03056083186218   -1.12063397571033
C           6.59489646032182  -15.17079744971212   -1.02225447418501
C           5.83299925233553  -16.21921638567708   -0.53206090772972
C           5.09812294230467  -16.87345667939802   -1.51093724904540
C           5.27031269476354  -16.35260540084069   -2.78539291483522
S           6.37765706192461  -15.00469657975597   -2.74186423802115
C           4.68152114164153  -16.80722191549089   -3.98209339475162
C           4.90070466996956  -16.25440739666853   -5.20823369588562
C           4.34315476602734  -16.71259323306451   -6.41318105613851
C           4.55216739508029  -16.17896963148159   -7.68419931822200
C           3.88812832833045  -16.84471552176717   -8.69145134054719
C           3.13012381056655  -17.93048330698653   -8.23896931074435
S           3.27289281597386  -18.08933475986035   -6.50332684211599
C           2.35379818018572  -18.80817436411848   -8.99211058863790
C           2.16774724659523  -18.79968827122955  -10.39144024205690
C           1.35529295411379  -19.78687948082333  -10.85439032696831
C           0.84128967820524  -20.64723310501717   -9.83671980763321
S           1.45915913354353  -20.11926308214821   -8.26373946225438
C           0.01936143867666  -21.70215906584814   -9.97796406945979
H          31.93033452428151  -13.02782236454060    5.25132336638360
H          30.75918562754346  -14.35081065709315    4.73776116754654
H          30.95651772094260  -10.54308043357841    5.45774161153254
H          28.73383011128845   -9.27624785702223    5.14610784131207
H          26.49958372041897   -8.61332618411749    4.71608737133635
H          24.00760704824814   -8.50478369618162    4.05660434211516
H          22.07874650247594  -10.01948707740335    3.18990833251472
H          22.90023885832797  -12.96667977788150    2.96866002820619
H          21.00193150427014  -14.48437789390918    2.05863384425117
H          18.59823368094255  -14.34302434173308    1.11737105850534
H          16.56698243602863  -13.58034560039474    0.08773909559837
H          14.53978416760371  -12.19164218673835   -0.71135849397833
H          13.75816986286092   -9.88114672372419   -0.92004068191360
H          14.88650486626073   -5.21384338104582    1.55915046588811
H          13.04887728077622   -5.12755105913070   -0.37150237430504
H          10.14732767078762   -9.42685054044391   -3.30411675280820
H          12.77177861810994   -6.00786256093241   -3.03345656666413
H          11.74551592788243   -9.44225482507943    0.33905838252364
H           9.83902956858194  -10.88784096446364   -1.60361821561525
H          10.47484638326083  -11.27306330480571    1.36800743640711
H           9.06168400743558  -13.22820209897210    2.41088301829251
H           7.36567157558495  -15.05332047914113    1.72118946909266
H           5.81935759252364  -16.49170507639855    0.50773248735448
H           4.45191053154657  -17.71104228797492   -1.31658203885720
H           4.02011519746417  -17.66034028122881   -3.89802205281422
H           5.55948240961782  -15.39793066894902   -5.28518395856829
H           5.18208490894370  -15.32137957384400   -7.84333757185978
H           3.93840283584948  -16.56789373884966   -9.72880548350642
H           2.64106565348053  -18.06491264649819  -11.01820744982381
H           1.09960251412028  -19.93837656801831  -11.88774871651056
H          -0.33576916083949  -21.99281062002502  -10.95067458229559
H          -0.30552418945948  -22.28242655601366   -9.13415799464144
