93
 SCF done       -174.216622313548          0.000557952416
C          11.49955856509294   -5.27290807919283    3.18093314815248
C          10.92100931581041   -5.80264064045850    4.26959181985908
C          10.66969087343142   -5.16575438027635    5.52808659260687
C          10.09443671532814   -5.96674583694729    6.45688895283763
C           9.84041601668505   -7.28925269891022    6.01291557955718
S          10.34610962603521   -7.47839527182087    4.34864544589797
C           9.29360657152789   -8.33139743055317    6.73777155636531
C           8.89376548393649   -8.34363246753972    8.08789576993512
C           8.41160061794843   -9.55340140715103    8.50031920349477
C           8.41023625142015  -10.56207556520480    7.51239166133436
S           9.02582585284286   -9.90503524379865    6.01632820386532
C           7.91317734156867  -11.84140972153686    7.74681672190295
C           7.81733599242303  -12.99219644576378    6.98431143274812
C           8.33150199047027  -13.37400785980493    5.74728777398994
C           8.00670933257420  -14.59166088861694    5.11777319282494
C           8.62453562706500  -14.79718269549304    3.91239116699714
C           9.48427213259600  -13.75218136665177    3.54397921321923
S           9.49446248423660  -12.51162996304570    4.77377173731590
C          10.23864806052847  -13.60516062031550    2.38572192758428
C          10.34518516809008  -14.47162782432856    1.28490995789276
C          11.14361128254390  -13.99434010614999    0.28304729303280
C          11.71306023778071  -12.72646012394491    0.54097489908867
S          11.20254915361693  -12.17181282522058    2.12381823504246
C          12.50656773189105  -12.01293306348103   -0.33012157121511
C          13.07546517114759  -10.74766467060725   -0.13104407141618
S          13.87145836482540   -9.95360192038842   -1.46755780433479
C          14.17910996951031   -8.53500963649461   -0.52196024410522
C          13.75368324616826   -8.72451887203296    0.80098612878891
C          13.13285823352371   -9.95623197321318    1.00861796553291
O          14.02532431659318   -7.79622200713978    1.73765287653232
C          13.74278048566761   -8.12619585963302    3.07859827711518
C          14.80886348766501   -7.37456342958987   -1.07508904485732
C          14.47885927748450   -6.08939824561178   -0.62730030665690
F          13.38808649725755   -5.97914754979394    0.16768289063497
C          15.15748821283722   -4.94548759108798   -1.02016707011082
O          14.89795483118886   -3.68126264007598   -0.61817176193552
C          13.97098346732274   -3.42040080317702    0.41750814057553
C          16.18529923601766   -5.08411593231955   -1.98781781894355
C          16.40885121482350   -6.36141264161272   -2.54102890545537
C          15.77514470857873   -7.50725417749042   -2.10793523846770
O          15.96804285575722   -8.77294521055252   -2.54354420480096
C          16.95849403628396   -9.07402511208120   -3.50410910659220
F          17.35376723585143   -6.43096115325313   -3.51061063938793
C          16.93108562474299   -3.99080854426561   -2.52488594016544
C          17.26714599555825   -2.76783882465391   -2.02536551344951
C          17.71910249387134   -1.72202846400668   -2.98545622037722
O          17.99406408301031   -1.87871867353861   -4.15387584111004
C          17.71342618982843   -0.45810135320718   -2.22291335177674
C          17.95179334781511    0.81177011413116   -2.66063365332357
C          17.86363976694460    1.88494515982957   -1.74464720205718
C          17.52448956831286    1.61578532188281   -0.38712117397185
C          17.43058999190837    2.69006768859095    0.51873434834721
C          17.66959876800016    3.96219911143155    0.07906347630226
C          18.00729278597457    4.24712137314858   -1.25022811812415
C          18.10084746037642    3.21576879195115   -2.14341901376772
F          17.58008091213917    4.99023099784683    0.94522356361825
C          17.29263384482186    0.28681229269725    0.03975864847722
C          17.39061047395147   -0.73607112668461   -0.86406720103389
C          17.24088724555808   -2.18073402865244   -0.70980009977812
C          17.27363694707022   -2.85327185650514    0.48689902325782
C          17.39907402309319   -4.25063025145858    0.59136150788298
N          17.52434164571169   -5.38436989500656    0.72450274018418
C          17.23532047842242   -2.22888802187034    1.74733599021197
N          17.16328309979033   -1.78069046931246    2.80293556069460
H          11.82931119958283   -4.24852364349460    3.18704677839544
H          11.65886505819332   -5.83657348455186    2.28067486625364
H          10.93751459126940   -4.13618983282919    5.68514843404726
H           9.84174544383447   -5.65329570065901    7.45420902350070
H           8.97697203671451   -7.47901988775778    8.72126246579606
H           8.06298003595460   -9.75051695222897    9.49935849346085
H           7.47907283105036  -11.93466926512290    8.73707067553966
H           7.22933873374077  -13.77887444143300    7.44570341033383
H           7.30985878610016  -15.28237987187293    5.55982434155263
H           8.46966014880515  -15.66179942661249    3.29264050273168
H           9.82956237073141  -15.41442530202217    1.24952378714948
H          11.33489894405202  -14.51402902686060   -0.63908238681437
H          12.68342294984979  -12.46721510511060   -1.29603192766227
H          12.75063861708828  -10.27547777303468    1.95855945055479
H          14.31078230692433   -9.00585618279325    3.39614954036312
H          12.67537001557266   -8.30800226102820    3.23090353605510
H          14.05054378205353   -7.26195178081693    3.66445401229617
H          14.07485271821785   -2.35609966706994    0.62843454035165
H          14.20247821920687   -3.99461277102723    1.31760742921571
H          12.94567793277039   -3.62789313443207    0.10413275231606
H          16.91061685968807  -10.15512041812923   -3.62510547729316
H          17.95422577682432   -8.78922425496214   -3.15774184203117
H          16.75269106371902   -8.59213704619413   -4.46233129025667
H          17.26895013596527   -4.13691048574119   -3.54829909144462
H          18.20459884070676    0.99784020083711   -3.69374356596585
H          17.17652593683517    2.50786197402597    1.55133068701480
H          18.18570245615043    5.27061780314549   -1.53953022762762
H          18.35953562814225    3.40986078681364   -3.17353928544935
H          17.03626455864273    0.11350956057931    1.07300886142683
