93
 SCF done       -170.797189305683          0.000635335077
C          16.97828692091139   -7.98108916283339    1.51738447155119
C          17.84844040890007   -8.49927943797629    2.60637202360286
C          18.10075157639573   -7.95687686274142    3.83425729505495
C          18.85290604995786   -8.79590241814103    4.67278879241200
C          19.17228465967523   -9.99831698462151    4.08805894032874
S          18.56728643966872  -10.06712262640015    2.45941513538092
C          19.76464977685266  -11.15849992501582    4.66755572644787
C          20.12660466062463  -11.39974281718109    5.97421478464689
C          20.48805926921268  -12.72949944152036    6.20510037244223
C          20.37485339796553  -13.54616875979257    5.09811937996366
S          19.92463709081768  -12.60108689873546    3.71227849351371
C          20.65136742684605  -14.95161743530315    5.07507515175609
C          20.18930374796434  -15.93454334384217    4.26795349169280
C          19.18963469975991  -15.92087313531750    3.24692472213845
C          19.00390013529027  -16.90690891162665    2.29535890181382
C          17.96147588656775  -16.65398389908272    1.40217364328984
C          17.30070741163772  -15.47261119239586    1.66672990385501
S          17.96569689731250  -14.70184481513993    3.07501524955396
C          16.31575452274567  -14.77215697276231    0.91972606134217
C          15.58735502083695  -15.14850654628591   -0.19108093909222
C          14.82595987320192  -14.11130646333554   -0.72526715598487
C          14.95858800859476  -12.90915246724796   -0.04901512264445
S          16.02140614568822  -13.10198674313133    1.31336085337731
C          14.42537816335583  -11.65373133516373   -0.43312183334543
C          14.67325449364180  -10.46107348921748    0.16681988433057
S          15.51775575713781  -10.33525495512594    1.69936783829778
C          15.52692224273961   -8.50824472008830    1.67235007598625
C          14.65548732827014   -8.12356888781488    0.52347840171320
C          14.38076969067145   -6.67671773509102    0.28977368251087
C          14.26525121084660   -9.14160089657771   -0.28207795411768
C          13.52393653425023   -8.91932545167304   -1.50927906104837
C          13.76682635983507   -9.51208565912704   -2.69224970298986
C          13.01507485420270   -9.21672007946132   -3.86886440755336
C          13.27794861056066   -9.78366851731703   -5.06624993098718
C          12.57900130453698   -9.53515796072667   -6.29117821750108
C          12.95169882394429  -10.20603413900765   -7.46288117079922
C          12.31535894589256  -10.03986738240894   -8.71248455074889
N          12.88959568152850  -10.73138780340866   -9.73436684078904
C          13.87607963956080  -11.43186003857626   -9.33499185400222
S          14.26341668941470  -11.33459474654479   -7.64093228234264
C          11.21658446789644   -9.17086921384922   -8.84966897442069
C          10.87953918628516   -8.45064544079846   -7.70143454975534
C          11.51295057414438   -8.62216423120596   -6.44707440764485
N          10.99581295796852   -7.83167075490480   -5.46370387059195
C          10.03791707712733   -7.10362737002844   -5.88350394863713
S           9.60695225266889   -7.27891323511511   -7.56463977007559
C          10.52889121993504   -8.97496830955183  -10.08936959528026
C          10.27116305694457   -9.95065798505127  -10.99876201821106
C           9.76465230553127   -9.77216629055447  -12.34783825812764
C           9.54797036566248   -8.58060652515561  -12.99018788152527
C           9.06960521234762   -8.46894484883306  -14.31256348768460
N           8.67967691023453   -8.31106636379225  -15.38089069915861
C           9.76543197416773   -7.30190465759296  -12.43548191745664
N           9.92198710808898   -6.22627859795901  -12.06450242873066
C           9.57763204773544  -11.09545986033780  -12.92964104722521
C           9.91988045928731  -12.07362004856606  -11.96432375989403
C          10.32223834730848  -11.40980132556985  -10.70876569735176
O          10.52151895682305  -11.95229050432319   -9.64481500430843
C           9.84491724656387  -13.42169265731130  -12.21628867714071
C           9.42402949952946  -13.82658830780339  -13.48717552365903
C           9.08571360743204  -12.84250837407476  -14.44662262534777
C           9.15257197912014  -11.47939036654487  -14.18899269409757
S           8.58665566433620  -13.56005991609739  -15.94893635611541
C           8.83786794916659  -15.14934795326554  -15.27730320842888
C           9.27213511911818  -15.14594765862256  -13.99463386453410
Br          8.50219567295387  -16.66324512776238  -16.33205194772532
H          16.95646436860987   -6.88961597655776    1.54133063391583
H          17.35729003566776   -8.30801265210997    0.54702299869843
H          17.74784563790080   -6.98457337649714    4.13203244714494
H          19.13182616397258   -8.53771160328562    5.67811534227427
H          20.10391319760122  -10.64600259006814    6.74043784675347
H          20.77639410612379  -13.10540835220487    7.17152348812096
H          21.34101102991362  -15.25732681089413    5.85446694476545
H          20.62557823178592  -16.91684674046476    4.41293849816638
H          19.64290315964646  -17.77062298243625    2.22974470201468
H          17.71635075534850  -17.29104673024592    0.57145247735405
H          15.61790010152518  -16.14186291061527   -0.60218146019307
H          14.20716125834738  -14.21501380511519   -1.59961687476908
H          13.80160839229105  -11.66507962822325   -1.31612628806952
H          15.12848667985723   -8.16221266212326    2.63042748322622
H          14.52562193056252   -6.10715763871893    1.20480643560574
H          13.35956017431596   -6.52936211965592   -0.05707902991083
H          15.04841400711152   -6.27625104845670   -0.47457022379775
H          12.74737543091561   -8.16546404906127   -1.45922763210699
H          14.58269972193797  -10.21547625840350   -2.79115062472575
H          12.20546067601465   -8.50675391967019   -3.78457168254045
H          14.08877654611404  -10.49936141057987   -5.14262969449446
H          14.46173240701858  -12.05344590537412   -9.98391178498489
H           9.50365490922081   -6.41214790332048   -5.26168770995788
H          10.18846689150652   -7.96327110551169  -10.27517414716160
H          10.10755391293936  -14.14163580838491  -11.45712831681377
H           8.87826772739461  -10.77024223821079  -14.95188629412221
H           9.47630496902708  -16.03596679081483  -13.42790757476682
