88
 SCF done       -150.824344155531          0.001004537759
C          13.78453822009629   -4.55035287803314   -2.56818223426330
C          13.15209767660469   -3.72317126551256   -1.71892997445004
C          13.40178232105097   -2.33334001084368   -1.50043467563361
C          12.57550455042632   -1.75540501616717   -0.58950999414107
C          11.63356224539230   -2.63996058023076   -0.01734542006732
S          11.81710024776631   -4.24314906362169   -0.68171733851800
C          10.68154362563512   -2.34783018133844    0.95608492890737
C          10.39452230410122   -1.11895168670704    1.56039042170147
C           9.39154775579478   -1.19472205130446    2.49967737820671
C           8.86989079452677   -2.47823960570794    2.70006614399977
S           9.65082906979118   -3.59707238228100    1.61477604926127
C           7.81767290937562   -2.74585907773440    3.59930342957165
C           7.26253129736530   -3.89177335527995    4.10059589622263
C           7.63339669151866   -5.25143516942671    4.03334127770514
C           6.90349183289430   -6.29520922893785    4.59907616639140
C           7.48939340906148   -7.54530838803760    4.46981653704205
C           8.70423335508560   -7.50701433795461    3.80513133788767
S           9.10360698007112   -5.87442598706922    3.34817099925040
C           9.59648290062758   -8.54250072401072    3.45203187787477
C           9.59858817545535   -9.89296277353504    3.75720560065827
C          10.67248916841636  -10.58219456486689    3.20864461018986
C          11.54258502741945   -9.79213685793340    2.46532063722444
S          10.96637073743422   -8.14626904777200    2.45251329477587
C          12.67306438404591  -10.24551214952121    1.76041351328190
C          13.59092612613963   -9.55028336627330    1.02304148716808
S          14.76570763062630  -10.48318972310763    0.06623265667279
C          15.48197610211346   -9.07015763684329   -0.71545184329917
C          14.88650511764592   -7.90685282212228   -0.14633226559272
C          13.86634798406892   -8.17386586207188    0.78870247360227
N          13.47699008002775   -6.97301791896925    1.26727930703478
N          14.16491158197116   -5.97451388969804    0.71374536715799
C          15.01752806702396   -6.50468638459095   -0.13772607552469
C          16.41454924235610   -9.18434469444787   -1.70634002860158
C          16.83908324856385   -8.07806287274494   -2.46290154246446
C          17.77369761412139   -8.08076584136912   -3.45346316467916
C          18.05918920660942   -6.92514977016557   -4.21355941579715
C          18.99940920709866   -6.74594968771177   -5.21551530290493
C          18.99523018282455   -5.47287509817709   -5.77419010469073
C          18.04237023904534   -4.63187557481889   -5.22337838021794
S          17.15260434195180   -5.45291350197021   -3.97315012413075
C          17.72618642072053   -3.29516387447190   -5.55365935378491
C          18.33008566669544   -2.45427364138197   -6.47453239691902
C          17.73950094916050   -1.20032898263892   -6.55028296871537
C          16.65779967303079   -1.03275445188435   -5.69731639939901
S          16.39351858239349   -2.49019384113459   -4.77226169697482
C          15.84005102182404    0.10211920585167   -5.54578798278134
C          14.76311904392256    0.16134732634569   -4.71027546981349
C          13.92549613891025    1.27280438848525   -4.53931793683064
C          12.81531893321810    1.35918977818376   -3.69876921609191
C          12.17158468751003    2.57630644697528   -3.74067148816692
C          12.75916910656561    3.49131001033844   -4.62252384766513
S          14.15423099906138    2.77606159831433   -5.39821055652938
C          12.35659043122414    4.79249525167859   -4.90864411635808
C          11.25582271372786    5.49010374986707   -4.36695359651018
C          11.10286883718968    6.75425807125054   -4.84420121499199
C          12.08606629704181    7.14039357577506   -5.80561183515969
S          13.21030190947667    5.79660784787994   -6.05712166466230
C          12.19899886228579    8.31324646252544   -6.45366531407914
H          14.59177426522368   -4.19291085836084   -3.18295725741391
H          13.50988032251703   -5.58514321528163   -2.65913989931671
H          14.19377271173372   -1.82874307311873   -2.02462048795956
H          12.62204237715324   -0.72005774410666   -0.29996545307783
H          10.91376638256360   -0.21215354494422    1.30818758631512
H           9.03797364110761   -0.34853764633018    3.06342002842713
H           7.35819230736859   -1.83127236653315    3.96067630366955
H           6.38198837796653   -3.74038033855732    4.71588382505459
H           5.95835669765008   -6.12922626791803    5.08638196567956
H           7.04996599484325   -8.45675642947703    4.83359848641975
H           8.83931592185062  -10.35141510851318    4.36486614914168
H          10.83402067535749  -11.63750812757035    3.34161722392440
H          12.80138204673425  -11.32129397390266    1.77275679343461
H          12.76971562808736   -6.75887130403846    1.95097117797692
H          15.68456965625984   -5.86761353304766   -0.68178379494976
H          16.79892784686892  -10.16498509489142   -1.94966617095351
H          16.34152726570488   -7.14007206689552   -2.26140360444643
H          18.32658514945191   -8.97877510430223   -3.69332603399959
H          19.66685147706759   -7.53122528733017   -5.52442422673913
H          19.65639364278942   -5.16360868755224   -6.56373179189428
H          19.17606417597906   -2.75495836728248   -7.06604314198309
H          18.07428392665370   -0.41905898900731   -7.20962547459015
H          16.09567770655762    0.96784324637393   -6.14318423350185
H          14.50907268118469   -0.71635733829569   -4.12828920504567
H          12.50462476735543    0.53214939815914   -3.08381273826388
H          11.29860875902694    2.81478862913516   -3.16049742455165
H          10.60557957726068    5.03714200022320   -3.63953524054388
H          10.32242977397477    7.43247886423461   -4.54892522068762
H          11.49610772122070    9.10744623309539   -6.27544894745230
H          12.98583659635028    8.49374820303273   -7.16234564401697
