132
 SCF done       -212.184779688441          0.000761030370
C           5.55405206764736    1.90277168861566   -4.91084693604309
C           6.24352385416446    1.12234422034917   -4.06896176984971
C           7.36757291780609    1.48770098415171   -3.25300387990819
C           7.85858164995845    0.48436774796645   -2.49529506252838
C           7.17104217309460   -0.75508205049002   -2.64392283706136
S           5.86356439241638   -0.58662108347544   -3.80122678785841
C           7.43223454002848   -1.93616703122406   -1.99906862870984
C           8.45084228325496   -2.21200650829779   -1.04878633425842
C           8.43295992474210   -3.47956994216618   -0.57266272399590
C           7.40599939386954   -4.30951331145667   -1.11631503027285
S           6.45941324964639   -3.37325415501448   -2.26737958644809
C           7.15246481870773   -5.58522748683535   -0.71142909015486
C           6.17956824368749   -6.51324471665100   -1.17772419428570
S           5.46641492389200   -7.56837805191106    0.01591674221742
C           4.47201790936651   -8.35711234400269   -1.17275977305624
C           4.72715738862335   -7.84455262247347   -2.42758050816990
C           5.68031931034130   -6.80195442216299   -2.43358169662340
C           6.13709417929296   -6.15040623949840   -3.69702997479371
C           5.79285902779602   -6.97693530253868   -4.93404109869364
N           6.00541243058600   -6.16006031016055   -6.11405042697426
C           4.30126419348807   -7.34688824804714   -4.84524171391705
N           3.89771591231833   -8.02294053949037   -6.09305508623210
O           3.00069327154854   -7.53640083667533   -6.73425957837679
O           4.49721341312375   -9.03302803630153   -6.38768826153085
C           4.07232714836720   -8.31803010441166   -3.68916214939370
C           3.50649934803482   -9.34162194023958   -0.72625615299405
C           2.98790366575660   -9.22774983047647    0.57271180119163
C           2.03646385102066  -10.11359308508618    1.01020765384818
C           1.56784556437716  -11.13318662301339    0.16647363346092
C           2.10014301484514  -11.28053862245372   -1.10438986241528
C           3.06545539632372  -10.39140426977402   -1.53929277732392
C           0.56549381357665  -11.89455039756794    0.88274346063163
C           0.42202615634825  -11.34961201808561    2.17017615090490
C           1.31778308622083  -10.14402237870951    2.34175834465001
C           0.52055039551348   -8.82502644703960    2.46294659174666
C          -0.44974592768446   -8.73542949570246    3.63332980603801
C           2.29877791331320  -10.32675964441664    3.51031978030456
C           3.12230565251939  -11.60346963683353    3.37828833667488
C          -0.41381039454854  -11.94667828825129    3.08447392571673
C          -1.12865543240076  -13.09233653162274    2.72120531608235
C          -1.02892757983106  -13.58183486358804    1.41621682472757
C          -0.18035394289208  -12.99852984893511    0.49695197635474
C          -1.97800200843008  -13.74309506089335    3.70656852287792
C          -2.12997629130854  -15.06591271132853    3.87069732952486
C          -1.37252298476023  -16.10722029909416    3.21691687703271
C          -1.98100496410597  -17.33984971731957    2.91760739096637
C          -1.27412054419520  -18.40638367962198    2.24452219734637
N          -1.95385908858171  -19.50106281644118    1.85767220765368
C          -3.21749910804226  -19.62344336756079    2.16472960797575
C          -3.88918684026884  -18.60971974743720    2.93386647235444
N          -3.27354277856503  -17.50523024195447    3.26031525995950
C          -5.23543378266186  -18.80323469726951    3.33024486622681
N          -6.32060850437871  -19.00426576379315    3.63841664545626
C          -3.91237681152925  -20.78047335514978    1.73462184777631
N          -4.48534071500287  -21.71976071587172    1.41436108198776
C           0.09339674100555  -18.30936418440302    1.91757416931218
C           0.71207423971152  -17.09241218958799    2.25625935900741
C          -0.00367008454208  -16.01465888582054    2.90589930199864
N           0.80422012516579  -14.98629046941098    3.18443301537013
S           2.28013676089945  -15.32225680571046    2.66880808224988
N           2.00267124277806  -16.78365594947343    2.07855944410973
C           0.79265329631805  -19.39344842431397    1.24938114302150
C           0.46351569661032  -20.72764340961716    1.53028899877397
C           1.05726093811567  -21.73377816251113    0.81228661607366
C           2.00748498653233  -21.44392964869321   -0.18197947393123
C           2.37709003120684  -20.12903233800007   -0.43034772049952
C           1.77001768746519  -19.11678873967222    0.28484995125900
C           2.42500867628009  -22.68850171199772   -0.79170857228649
C           1.72672308342356  -23.74273362372504   -0.17867621467250
C           0.81458782249260  -23.22068432531601    0.90624744682658
C          -0.66175535832213  -23.56042439808041    0.62681062051129
C          -1.15598941847269  -23.01572246894517   -0.70727302556945
C           1.21632745165606  -23.77165613029931    2.28732252165444
C           2.66593239172746  -23.46943149960570    2.64752210896278
C           1.92428630784054  -25.03936851290932   -0.58809367572935
C           2.82980716133131  -25.31611332543514   -1.62102484228492
C           3.52006833587580  -24.25550130476168   -2.21736032381252
C           3.32620213873118  -22.94932936949392   -1.81384448672173
C           3.00999995579877  -26.70214807338029   -2.02908824647111
C           3.83723656697098  -27.16094367321479   -2.96199747552474
H           5.81815702893272    2.93736844550373   -5.04144270837498
H           4.72233444684149    1.52692702302086   -5.47794796173476
H           7.75502296725576    2.49093998227867   -3.27347687076326
H           8.69473509167437    0.58237772576783   -1.82567584109148
H           9.16033763033473   -1.46204042312001   -0.74837637312527
H           9.12385620659343   -3.86637458956348    0.15585972455509
H           7.71986829818741   -5.92128526641504    0.14923474063513
H           7.21460113451107   -5.97497506612650   -3.65175209157700
H           5.65399785762691   -5.17631373488194   -3.81672457652362
H           6.37494211265177   -7.91617684738466   -4.93793851723676
H           5.95624937242689   -6.70983886454756   -6.96448012519945
H           6.91160134092748   -5.70971271996993   -6.08410505462339
H           3.69779732228958   -6.44012911074771   -4.76151862258830
H           4.50637026902593   -9.28008546261161   -3.98547410162047
H           3.00159399840274   -8.46315845998665   -3.52120696282239
H           3.33854606791379   -8.43039605411853    1.21167128983701
H           1.77176839392787  -12.07969006498453   -1.75194674654812
H           3.50357312435635  -10.53847035756290   -2.51168816968747
H          -0.04026866862925   -8.68723442461631    1.53460232929996
H           1.24261859140673   -8.00854889269944    2.53507585472762
H          -1.24826598691524   -9.46481134620507    3.53106331621276
H          -0.89866393081397   -7.74444619962074    3.65192826855833
H           0.05551411839305   -8.89254568750558    4.58266658120203
H           1.74049421045419  -10.36145293329674    4.44640433950844
H           2.96648365685906   -9.46334473944639    3.54596836876479
H           2.47352178983388  -12.47728252793542    3.38160914142742
H           3.81899957921714  -11.68750011232006    4.20927432552117
H           3.69109473890926  -11.59888184938455    2.45075662850085
H          -0.49280010148291  -11.58015709732723    4.09651663544597
H          -1.62784358045864  -14.43476733908922    1.12977257636177
H          -0.09568821275739  -13.39949423405863   -0.50257318246378
H          -2.54600607679114  -13.07938274298927    4.34678624651068
H          -2.89820929024538  -15.43020964521073    4.53994301658268
H          -0.24523993028887  -20.95556474315508    2.30987453078174
H           3.11431040652691  -19.89626010244303   -1.18414064095374
H           2.02540814085036  -18.08867768079181    0.08255435125079
H          -1.27581046703281  -23.14644890830642    1.42904359069160
H          -0.77982915142208  -24.64586249938424    0.64229104176637
H          -1.07226500415483  -21.93163616768576   -0.73183645783672
H          -2.20088726310283  -23.28004836225745   -0.84994610165871
H          -0.57644987384385  -23.42653587695932   -1.53163597304899
H           1.05944426826465  -24.85230523372842    2.29074803284583
H           0.55644267756396  -23.33682230748380    3.04098860824729
H           3.34297772942313  -23.91189443719602    1.92011242859560
H           2.90065220742233  -23.87687102781791    3.62833838388865
H           2.84079604835616  -22.39596447267845    2.66934897478531
H           1.38648508682640  -25.85264727997728   -0.12104085917972
H           4.21836376003674  -24.45897445344853   -3.01409341391969
H           3.86689542207547  -22.14451475712594   -2.28962440585525
H           2.38811866799060  -27.40983676499144   -1.49352839695264
H           4.48748841202784  -26.52188017735444   -3.53412675255205
H           3.89402980898332  -28.21163870787793   -3.18921986993261
