89
 SCF done       -156.798223888542          0.000525599875
C          -3.78442517214052   -6.88268738599247   -1.49611008038130
C          -2.62409685078041   -6.37191520711509   -1.11141593246485
C          -2.20785862612216   -4.93084657333784   -1.23589248756639
C          -0.97671802440815   -4.75904328562557   -0.41290966261893
C          -0.37328171907286   -5.89666775241817   -0.03795955496717
S          -1.32876929203226   -7.34347596027439   -0.40907799856159
C           0.95728154318240   -6.06825633385349    0.46587848254275
C           1.80313752198684   -5.16131919122957    1.05937389149066
C           3.10278111355718   -5.64816307027022    1.22614246985179
C           3.28134469934940   -6.92809715111781    0.74319204355063
S           1.77960294733743   -7.55662553784894    0.12198420151793
C           4.48967626931670   -7.66180686271316    0.60563932573165
C           4.54469829872488   -8.83425243489390   -0.06915933501964
C           5.69367255341393   -9.57664645549596   -0.41776939211307
C           5.68848426655138  -10.74068782675989   -1.16950243711384
C           6.95053993032686  -11.24202048830699   -1.44080362788302
C           7.97615106881347  -10.47543308021746   -0.90297670018857
S           7.32730602806041   -9.10545962494525   -0.03479099073594
C           9.35567927680930  -10.73362122776004   -1.02011398354120
C           9.94149157924813  -11.80732972442403   -1.68543677817240
C          11.31764540185575  -11.81763813251884   -1.63880419977064
C          11.86467364828157  -10.74323252298634   -0.92698949306813
S          10.58098988012840   -9.70547660552083   -0.31940934104051
C          13.21223601596796  -10.52609544532580   -0.71379293387858
N          13.72346356414146   -9.49878238570304   -0.01414218918655
C          15.02568462691043   -9.28926419948154    0.24574760479295
S          16.23438957872407  -10.41077444938942   -0.33573788289901
C          17.45813939469999   -9.44970862434560    0.44087252175008
N          18.78545783556588   -9.87447075299861    0.32108486876882
O          19.64792737716106   -9.20576268622592    0.86307213316728
O          18.98156858181009  -10.89263836657585   -0.32219709504373
C          16.97702201201693   -8.35500068561153    1.09446968800752
C          15.56957590156491   -8.21879481529369    1.00367018109230
C          14.80688637056855   -7.17698363514691    1.56033074414697
C          15.31646716740006   -6.19150324887838    2.38420285537095
C          14.62986079214930   -5.12113131947477    2.93034499483416
C          13.31134273454174   -4.69591956196309    2.74460531430569
C          12.75673249790073   -3.57997422427273    3.37637813860391
C          11.45114790798325   -3.31191237146481    3.01982072756737
C          10.93005152054321   -4.20612397459492    2.09156419847315
S          12.11812596484041   -5.41121452647391    1.67984951994031
C           9.64144763808331   -4.17497659012620    1.52022325270320
C           8.64486249346161   -3.24854674144853    1.79184318139674
C           7.48841480903180   -3.45345036198156    1.05739760763564
C           7.55284777383149   -4.53834078349057    0.19686675888856
S           9.10279880539697   -5.32556556716445    0.32270252805271
C           6.50642489000450   -4.95776087002239   -0.65274928844106
C           6.49774795233294   -6.01311768098162   -1.50305847106498
C           5.34571672219836   -6.36840621978221   -2.24996876632530
C           5.12003424488428   -7.48632539550119   -3.02702889883441
C           3.81659265415556   -7.57467375936628   -3.52157736184739
C           3.01723529781538   -6.51582704592443   -3.14873308886538
S           3.90816393899691   -5.38391480205798   -2.17964522924724
C           1.62413084818151   -6.30087203171087   -3.35646179234468
C           0.66187045783196   -7.16119567065253   -3.82542346455944
C          -0.64129869002530   -6.64529114773264   -3.71837427802257
C          -0.69093519722560   -5.39187895347546   -3.18106856034461
S           0.90277373544921   -4.80466994513472   -2.83531299252379
C          -1.87418146480096   -4.61062596673983   -2.73200628171114
H          -4.55331296418431   -6.25946722234382   -1.91996720446962
H          -4.00268636743036   -7.93069815461758   -1.39856891263206
H          -3.02038176048646   -4.26666498577019   -0.92612569559420
H          -0.53380158910764   -3.78731499385926   -0.28328210624870
H           1.48791193903586   -4.17785175791608    1.35825988824624
H           3.90525371074419   -5.07800569867483    1.65983747535451
H           5.38964418255329   -7.20992852976231    1.00047450702469
H           3.61611001744977   -9.25183492363747   -0.44175353907881
H           4.77560205294970  -11.19672660029052   -1.50944674521232
H           7.12686183687353  -12.13304805136329   -2.01461309359710
H           9.35936704740560  -12.55873374121173   -2.18629129789059
H          11.93467530298665  -12.57053305965421   -2.09403078988825
H          13.92099264735507  -11.23092760965149   -1.12248877021369
H          13.06343675430216   -8.82285880232221    0.36184288377549
H          17.62980367343163   -7.67333212249821    1.60759509798522
H          13.75094976504420   -7.15800686592444    1.33512382218812
H          16.36064976132503   -6.25711306225805    2.65534904961924
H          15.19373388038015   -4.48512489580848    3.60173185411667
H          13.31903849078219   -2.98833538350213    4.07696449290967
H          10.88483031264308   -2.48681375001617    3.41145065763588
H           8.76677110732821   -2.45170045617612    2.50235992272461
H           6.61279587388573   -2.83280539947948    1.13198431690111
H           5.60764454930285   -4.35466885013295   -0.58461058625040
H           7.37000957998025   -6.64453994002250   -1.60281900524888
H           5.87813324211146   -8.22775970863626   -3.20934156765203
H           3.46215328437054   -8.38780939890382   -4.12918795142196
H           0.88352954400293   -8.14566768510863   -4.19483306903023
H          -1.52132983456114   -7.19576478880279   -4.00148629808886
H          -2.74452343614524   -4.86207656235349   -3.34028845632681
H          -1.67321570098376   -3.54142975704410   -2.81890554355763
