105
 SCF done       -179.693972457120          0.000878495490
C          -3.83306958042217    5.46575437445051   -4.16944798548650
C          -2.72090290125116    4.83047598041283   -4.56808667630424
C          -2.06631163980751    4.91817737836286   -5.83964192600195
C          -0.95296973389139    4.15552039019931   -5.94827171220212
C          -0.63728683629394    3.40933211668420   -4.78311088630776
S          -1.82245005636001    3.71228967235636   -3.52951195005369
C           0.43425046736702    2.55915833052529   -4.59975053140676
C           1.45302557392030    2.23868210059538   -5.52196322428376
C           2.38822989384426    1.37254056859702   -5.03227030376843
C           2.16085906514766    0.96113158110407   -3.70460486593486
S           0.70060313953906    1.71168185869034   -3.08924813313697
C           2.95473051598626    0.11078873192664   -2.95468982822376
C           2.70091949069231   -0.26322795616985   -1.64744561078822
C           3.52809458310412   -1.07333790223455   -0.88783411523095
C           3.33394360860562   -1.46779480353517    0.44922323143637
C           4.34220764871644   -2.23485457564531    0.96291225180603
C           5.38805201357326   -2.48337735141435    0.05224306608218
S           5.03809518797501   -1.73114727157296   -1.48995840135203
C           6.56917652444835   -3.16707411416686    0.27244461850744
C           7.01426261769848   -3.76838721594665    1.47335845242472
C           8.26310816540704   -4.29830547541030    1.40596624836989
C           8.88524583467479   -4.16240366848080    0.13158505557736
S           7.78148403468354   -3.34605445883248   -0.97827671472710
C          10.09306911561549   -4.62207070470213   -0.27913871305292
C          11.09073715206986   -5.20082008370928    0.60242816992015
C          11.78478058703430   -6.38371775899637    0.27117509804127
C          11.40869121720343   -7.26331475671964   -0.84328937584812
O          12.15934464148186   -8.10588842794689   -1.29727406611166
C          10.04554422247872   -7.08899200191982   -1.43304552431587
C           9.88822703248974   -6.84481559894827   -2.76188895310016
S           8.23857108245154   -6.67360906843685   -3.21742435900841
C           7.73720382914158   -7.01025616402886   -1.62090203262552
C           8.78432208264981   -7.22411063801408   -0.76243741406252
C           8.60569480623444   -7.55140659409773    0.66245407450461
O           9.48207431666780   -7.41930157019129    1.49315091511748
C           7.25496989498470   -8.05318877819690    1.04011935761173
C           6.65612210890061   -7.56206988926905    2.19640097972804
C           5.40900582003856   -8.01600250947575    2.58255202463708
C           4.76256101116247   -8.98698481239343    1.83497935931197
C           5.36824578786234   -9.50481273992261    0.70165662882139
C           6.60674673036495   -9.03812849550379    0.29953807862763
C          12.84259008600580   -6.79815055565974    1.08466419546557
C          13.20476230310331   -6.09919704743840    2.20991524882202
C          12.49123169193394   -4.95076961817398    2.58879892941388
C          11.43270506308278   -4.53551616108516    1.76948107098861
C          12.78138344501153   -4.17979154684536    3.75938699452852
C          13.93378027927996   -4.11343781719864    4.48845255994737
C          14.11651393650167   -3.29594488443990    5.63898844047664
C          15.38042199798284   -3.29802117634387    6.14130366013198
C          16.28189615703583   -4.10888306640646    5.41905220297110
S          15.45323534790413   -4.91213941721893    4.10343187883636
C          17.64190123165818   -4.25981037866338    5.63087628481341
C          18.42995485334023   -3.67469884116113    6.64003565523878
C          19.76167053493861   -3.96973927128185    6.54004466748863
C          20.09062811137684   -4.79769658547619    5.45150439976708
S          18.64137778512205   -5.21850071552797    4.56118743995642
C          21.35981710043548   -5.21049933923223    5.07857262885665
C          21.64436677623535   -6.00252523622312    3.98238931547434
C          22.92196322960140   -6.35704436659643    3.58052385779619
C          23.27043793821133   -7.14971872087491    2.47050842951558
C          24.61550758040963   -7.31263640568642    2.29481829847135
C          25.40053466949886   -6.65113201297090    3.26219688844209
S          24.36989998271423   -5.82365375089312    4.41170202802766
C          26.77742563954342   -6.60193440261290    3.35164686435041
C          27.71975179365094   -7.21566530596119    2.48642669398347
C          29.01305856068331   -6.98208259339989    2.81257457292991
C          29.19063436797452   -6.15948893322051    3.97215372821064
S          27.60212992917170   -5.71087818517319    4.61336991919212
C          30.34305632623192   -5.75733254932994    4.52876920854924
H          -4.34779783371807    6.13753861642861   -4.83340876444925
H          -4.24193631074430    5.32805744972745   -3.18548688352087
H          -2.45821921292851    5.54969710932599   -6.61694559935796
H          -0.34019896980983    4.10181902187673   -6.83072712620170
H           1.47431000832837    2.65198124993956   -6.51420059544401
H           3.23791458299402    1.01865092846151   -5.58961017156662
H           3.84562553782741   -0.27596146261986   -3.43410237545634
H           1.80358512652413    0.10988077210352   -1.16979181019146
H           2.45908372571560   -1.16876194119987    0.99965712730829
H           4.35925538676257   -2.61638677824244    1.96802979725226
H           6.39754118212909   -3.78335342997495    2.35461286269854
H           8.76385309426948   -4.80758250474784    2.20942330011858
H          10.35928300344762   -4.51614431418747   -1.32139022215032
H          10.66154328292671   -6.71958343425317   -3.49378427661926
H           6.69074690788818   -7.00796879877111   -1.38683591883403
H           7.17648570571332   -6.81561627832151    2.77709719273184
H           4.94285820226382   -7.61921422708776    3.47236514616860
H           3.79163818374533   -9.34779305150127    2.14076854182169
H           4.87422680873524  -10.27615760889003    0.12944114897965
H           7.08527148356894   -9.45665008654271   -0.57381962559811
H          13.35819845637632   -7.70723392685860    0.81258284822881
H          14.01192442470525   -6.46184833002205    2.82583358637928
H          10.90727193889592   -3.62416870969488    2.01954452312633
H          11.98807887798649   -3.51901826944321    4.08919996617414
H          13.30081529760844   -2.72652436216585    6.04868012029552
H          15.69122297775776   -2.72700651467134    6.99783714142232
H          18.00518446302665   -3.05225302397508    7.40686712864622
H          20.51584483746980   -3.60670688367234    7.21605582399593
H          22.18449408789646   -4.86498539546573    5.68974670323545
H          20.82102406538188   -6.36584977702632    3.38014096275198
H          22.51915229579511   -7.57612160627873    1.82907471250161
H          25.05515231769928   -7.88430143030058    1.49749440947419
H          27.40524718765320   -7.81102162157731    1.64760296026247
H          29.86230257960441   -7.36240564553467    2.27333958045461
H          31.28763130672355   -6.05069364720284    4.10615774951762
H          30.36130921509490   -5.13364090322036    5.40344966703973
