100
 SCF done       -166.223814173886          0.000891106614
C          -3.74071577769201   -6.86260174062608    2.15628292198100
C          -2.49827802727550   -6.48988781130302    1.80719023950706
C          -2.06265230186121   -5.22020155743802    1.31410219400769
C          -0.73242736941974   -5.14823271597703    1.05357976127525
C          -0.02197995117887   -6.34225814011066    1.31840010834428
S          -1.10704565567343   -7.58078766766342    1.90736223732367
C           1.33746557997919   -6.56713596435821    1.15548987219316
C           2.32371405151729   -5.65411487825809    0.74963012215203
C           3.58537316269378   -6.19354926183464    0.69705016249546
C           3.64664195501661   -7.54989062462311    1.04134395864448
S           2.05327305975383   -8.13508412301366    1.46213022964783
C           4.78183002138794   -8.36338347319074    1.04412575876976
C           4.79040367647574   -9.70737378646345    1.31684903073336
C           5.93435897107452  -10.51315387613304    1.29378922961755
C           6.00962097563256  -11.89098825704739    1.50094888387974
C           7.28425443414178  -12.41010765658389    1.39401202660301
C           8.25455055900766  -11.45135120352004    1.10872557502810
S           7.52721132703245   -9.87136603870400    0.96605384017932
C           9.63802290220142  -11.61193246264712    0.94425996066614
C          10.41241636535194  -12.77141361521548    0.98631942358716
C          11.75869858920099  -12.54641320633707    0.79060598697845
C          12.09815370930740  -11.19960201965701    0.61648620410964
S          10.64636315720264  -10.22197470941636    0.64862338846876
C          13.35195342218840  -10.67053949286385    0.30723365438929
C          13.68496911954905   -9.32470336553795    0.30795910211942
S          14.91308832864104   -8.71926001532071   -0.79296465954027
C          14.53265383515938   -7.05015681020001   -0.40120752017263
C          13.59897852053569   -7.00822307864116    0.66078321329812
C          13.15389613636846   -8.25383215202037    1.05809205409891
C          12.39077069412928   -8.40930274641065    2.33344236073189
C          12.90935164686261   -7.35748204947747    3.32459525263838
C          12.27287332247380   -7.53464732462359    4.60723720205076
N          11.73766064667044   -7.68948217895343    5.60515184444058
C          12.59357171909864   -5.95681869693546    2.77849441458082
O          13.12673641740538   -5.01600778646260    3.68636113797866
C          12.56791500545456   -3.72999718193033    3.58644647042181
C          13.18019231129716   -5.75234381805639    1.36119384850557
C          15.10583536028633   -6.03027676326613   -1.15419851086525
C          14.56319546763572   -4.75823664483152   -1.24484613758709
C          14.99197297187316   -3.69189283480361   -2.00617155771665
C          14.19736869270854   -2.54544683740732   -2.11990010818762
C          14.39094397133184   -1.38383617713251   -2.86789146018345
C          13.33387030574080   -0.49282273565455   -2.81864941179272
C          12.27250292412227   -0.92642558998423   -2.02877607729771
S          12.64465136593137   -2.46793597667258   -1.30995070901669
C          11.00336858408149   -0.36837444291704   -1.80701810446174
C          10.42388913997320    0.78908669893345   -2.31815340681937
C           9.10260371712996    0.95686540928468   -1.94540966270729
C           8.60619466678648   -0.05765887300820   -1.12827457024259
S           9.85935606829222   -1.23464740870186   -0.81448354510907
C           7.31007416326782   -0.22383839109361   -0.62233956444883
C           6.95135495272568   -1.27464019884533    0.18165640639304
C           5.67476990577643   -1.54812040475382    0.67488381420507
C           5.33057866714607   -2.60715155285049    1.52383521743181
C           3.99829008422113   -2.66090247731152    1.84866242045293
C           3.23416610025855   -1.64443359889699    1.25406776791226
S           4.25576123935751   -0.60626028319529    0.28146436013512
C           1.86676857371880   -1.43466948605985    1.36474407846043
C           0.94602889958878   -2.18393134188461    2.13345735380172
C          -0.33905951577594   -1.75308189215929    2.04461371366159
C          -0.52216998220190   -0.62236641154782    1.18904734495671
S           1.04448169474447   -0.14539787380205    0.51423409865373
C          -1.66562784227258    0.02020496979625    0.89738544320524
H          -4.56170659364140   -6.17188124046150    2.08180282310825
H          -3.95356885454747   -7.85241634660334    2.51546696200671
H          -2.76078681284300   -4.41536055973654    1.16812314672433
H          -0.23870047107544   -4.27215590968840    0.67261594945820
H           2.09647431589324   -4.63115627194738    0.50839368077614
H           4.46275071539057   -5.64134481561838    0.40907001274260
H           5.71820448341276   -7.88111723707672    0.79113073123546
H           3.85519076451561  -10.19909160030217    1.55348857068748
H           5.13701369228308  -12.48027909229140    1.72117179101960
H           7.52310458779667  -13.45054853855944    1.52197189272833
H           9.98442698833053  -13.74383549140956    1.15135461606977
H          12.50411687301432  -13.32210889346694    0.78896290777482
H          14.08954130067573  -11.36795635456874   -0.06868131760530
H          12.52768463326856   -9.41375426149563    2.73794288114430
H          11.31978676468473   -8.24713700049480    2.18434652406144
H          13.99272488123722   -7.44920833145740    3.45939611077308
H          11.49653068450277   -5.84576576852032    2.74204002520829
H          12.77162626603292   -3.26809604206532    2.61401030945980
H          13.03073988773101   -3.13712889754534    4.37236746130587
H          11.48331634256149   -3.76004872277009    3.74410796012396
H          14.05163571240078   -5.09817649743235    1.45667292011499
H          12.43061219684813   -5.23241872357595    0.75792841064680
H          15.95177888355975   -6.28709513110022   -1.77776503063434
H          13.63249150086519   -4.59336699946806   -0.72589152678579
H          15.92116608817294   -3.72961806186531   -2.55651473323403
H          15.28597029543718   -1.21844174909213   -3.44137770892753
H          13.31303955430057    0.44311667968995   -3.34798553031730
H          10.96141473069324    1.47112943559909   -2.95241456560222
H           8.49231799632381    1.78632999028848   -2.25691618897683
H           6.56830104776719    0.51273871276608   -0.90200792580334
H           7.72301237185833   -1.97936119427792    0.46951097916490
H           6.06671446592297   -3.30503144995434    1.88302073697513
H           3.56579442863208   -3.40743245819634    2.48985894451702
H           1.26050584041130   -3.02070245039564    2.73252945087097
H          -1.17132115953829   -2.19980524845508    2.55839323632915
H          -2.59849429248926   -0.29947509246660    1.32646117830926
H          -1.68586482617280    0.86518422055511    0.23439563003229
