116
 SCF done       -202.270048326716          0.000511973435
C          24.09291451745817  -19.07941163657960    1.40304403340524
C          23.29293419193412  -18.13086259643293    0.89254373911090
C          23.38930375412486  -17.49185486613145   -0.38544596995554
C          22.43120709772484  -16.56258936874302   -0.61757631620882
C          21.51076736917176  -16.39331882082674    0.44834162537201
S          21.90310009698870  -17.46918326107480    1.76875630133475
C          20.44589372432275  -15.51143144616715    0.50106378694753
C          20.03516422182095  -14.59246206084372   -0.48331470533108
C          18.95555270823544  -13.83655978529686   -0.11479159760511
C          18.46333543630953  -14.12020072985058    1.17042580777412
S          19.40660201181812  -15.39624901206096    1.90630318646189
C          17.41270425869980  -13.47484263261804    1.81303047548844
C          16.96865541928655  -13.75393989054365    3.08606373696798
C          15.98275754966968  -13.02727098224772    3.74895311612132
C          15.52254395540487  -13.21706489718519    5.05861362646811
C          14.60736628748896  -12.28020452808508    5.47460661139830
C          14.30971752555890  -11.31558652209958    4.50354023288686
S          15.19012264207228  -11.64082911628874    3.03191136287089
C          13.50866836274459  -10.18004166881054    4.62134124591813
C          12.86584166950314   -9.67654592810882    5.76118046181850
C          12.27260751631237   -8.45689769881651    5.56393423064176
C          12.41763744621262   -7.94847241689595    4.25841587504165
S          13.28913802816942   -9.09614221175125    3.26823779445203
C          12.03902867542678   -6.68695148646801    3.83198085046860
C          12.22264060188999   -6.14803364823508    2.56146864502525
S          12.66802921865204   -7.12202300954257    1.18742284584972
C          12.77978202116224   -5.71872608104418    0.14848946959844
C          12.48049869963963   -4.55183364527220    0.86432931291078
C          12.12781906058887   -4.79478088727193    2.18225837909793
C          11.76217633887592   -3.70772128389227    3.15419463546095
C          12.90753273509464   -3.47070917503092    4.10332838083116
O          14.07404276626468   -3.50499117014296    3.84394351609683
C          12.44947799624590   -3.11028727329748    5.55231487077147
F          11.63137570089987   -2.04498081887468    5.55888153762385
F          11.75679633484322   -4.12259547452984    6.10510974292534
F          13.46925073769238   -2.83815331067645    6.35897212124508
C          11.48095369109625   -2.38636698953462    2.40240342224974
C          12.55765370130296   -2.12073182918565    1.35876439724028
C          12.49945399360732   -3.18240479733918    0.26397049635541
C          13.14816197819659   -5.85640331210448   -1.19439038531147
C          13.17174628974054   -7.06613961578921   -1.84083731319279
C          13.63860903267747   -7.29808158342686   -3.13440646157753
S          14.57835639518361   -6.13280197211670   -4.01314005623482
C          14.84878278015785   -7.22266188142370   -5.35373833628882
C          14.16288740718742   -8.44330611105443   -5.13362952600835
C          13.48892836513541   -8.49121103218875   -3.88815156741739
C          12.74293372249439   -9.62225501194419   -3.53858663152783
C          12.65172945866693  -10.69970833931000   -4.39517403163760
C          11.79650209518667  -11.89362257597018   -3.99822948320553
C          10.34621263459142  -11.42158130197990   -3.81699808357782
C          11.80543086646041  -13.00699097912389   -5.04905636891018
C          12.32334070306016  -12.47635106887524   -2.67925801230387
C          13.34630854897118  -10.64271534701164   -5.61853370795830
C          14.08924499615771   -9.54991348835058   -5.98819818663254
C          15.67567009401658   -6.92471529844995   -6.42733954391662
C          16.37305452778682   -5.74756436591440   -6.58691871189562
C          17.29442916788056   -5.42462653916362   -7.58603090141125
C          17.84783826767299   -6.14108686898793   -8.63638077425091
C          18.85926912157958   -5.57573654039105   -9.50674170908283
C          19.26995178188441   -4.26429360402738   -9.58282246318188
C          20.27128629968704   -3.80096640490530  -10.45925175856303
N          21.07898773583668   -3.34568423205436  -11.13833397696475
C          18.76389771907819   -3.17111115018489   -8.85136089915189
N          18.42045035022925   -2.20592853417917   -8.32824265164990
C          19.37590384786730   -6.64300915213935  -10.36029814741728
C          18.64429108955009   -7.82089831029814  -10.08488295884520
C          17.64532575011763   -7.54457553053538   -9.03483840960925
O          16.83508384574593   -8.36324715029219   -8.63053569489308
C          18.88065598049602   -9.01159945612915  -10.72625557846537
C          19.89901699754329   -9.04511113757801  -11.68425549941047
C          20.63018217152652   -7.86517927670626  -11.94924875309741
C          20.38467028393532   -6.65788810719874  -11.30351836318628
S          21.84391817385180   -8.13771825920564  -13.16158247338138
C          21.36854322058873   -9.79596241239221  -13.29959479770698
C          20.35038622634255  -10.13608166869881  -12.48028180735680
H          24.92833044771068  -19.45388198323728    0.83850267041194
H          23.92829195527369  -19.49179283678275    2.38136936924947
H          24.17254930996516  -17.75379146323036   -1.07411507486117
H          22.35451514765509  -15.98601232163796   -1.52213839546739
H          20.53859988770500  -14.50289407384941   -1.42880070867899
H          18.50714025944357  -13.07934502321943   -0.73361837946857
H          16.93174613749364  -12.67383511751692    1.26497982110254
H          17.42891480465290  -14.56789702529396    3.63198111165878
H          15.88170051443898  -14.02445993236915    5.67215670870235
H          14.15995050163500  -12.26674317519341    6.45202529648570
H          12.87363636600629  -10.19716544736715    6.70183522002854
H          11.75608322191901   -7.90246475073748    6.32738629097549
H          11.61221335452220   -6.04643203121116    4.59132679148341
H          10.87158549636662   -3.98638951537206    3.72732078660684
H          11.41902470814660   -1.56133393680464    3.11317018422926
H          10.51054146422057   -2.48338535852273    1.91198403270850
H          12.41175058168806   -1.13148808950347    0.92334668510781
H          13.54134028432132   -2.14021903102844    1.83148398401504
H          13.35742669868406   -3.08037912297236   -0.40236114556941
H          11.59637354163832   -3.04477882181114   -0.33999163603490
H          13.40909923057374   -4.96103264466415   -1.74254135364120
H          12.79443858991369   -7.92743152631879   -1.30432224643619
H          12.22764098182514   -9.62888915026636   -2.59125446865656
H           9.97583456209722  -10.98023622699193   -4.74005281816541
H          10.26528282787014  -10.67878078128449   -3.02824366262434
H           9.70868355734390  -12.26407117497497   -3.55785960103982
H          11.40586717524766  -12.65553303017376   -5.99746761088021
H          11.17977594280281  -13.82920452285363   -4.70765467358524
H          12.81011867569978  -13.39341494937944   -5.20404145084870
H          12.27334814589975  -11.75017711735827   -1.87285229081048
H          13.35916346658614  -12.78896700533236   -2.79307506083488
H          11.73161795826605  -13.34266837913102   -2.39219921091144
H          13.29835007712167  -11.47545699123908   -6.30009789055007
H          14.60714727749217   -9.53750934952829   -6.93431161523012
H          15.79754283459535   -7.70125491562266   -7.16827571759416
H          16.20569120225984   -4.97146954913492   -5.84721514075369
H          17.68497691709788   -4.41928068863134   -7.48775485810091
H          18.29938857933394   -9.89062805836994  -10.49353221146754
H          20.97464798038472   -5.78970788393118  -11.54312940018407
H          21.89058539367024  -10.42166161933976  -13.99721044307987
H          19.92254794949992  -11.12119479959117  -12.42834914719771
