87
 SCF done       -154.572370588042          0.000480833688
C          -0.41821858683865   -5.08498595296921  -10.27528003796582
C           0.58736911106178   -4.75286345904959   -9.45034285855204
C           1.09877259999968   -3.44612987959969   -9.16783434969433
C           2.13264922724034   -3.42851664456524   -8.29125260980443
C           2.51939328819329   -4.70549965405730   -7.81508463429405
S           1.50773756257559   -5.94827382892472   -8.52279783160004
C           3.54505997159657   -4.99544646166299   -6.93419018425640
C           4.43300175560186   -4.09352647229791   -6.31686816421798
C           5.36159145886876   -4.69669116022835   -5.51284067736139
C           5.25527123559613   -6.09605773556279   -5.45347426751986
S           3.91943947523419   -6.63710432715196   -6.45002383420647
C           6.08479658324555   -6.95805405843500   -4.74813770346989
C           5.97229145343901   -8.33086627672685   -4.71932166712217
C           6.86410738484260   -9.17330051413119   -4.06239031765759
C           6.83970347099851  -10.57380029042048   -4.01740884602857
C           7.89628260991951  -11.13445399385768   -3.34168077460041
C           8.79772482458336  -10.19497104598041   -2.82487816505896
S           8.26074300082839   -8.57307203771489   -3.19291642867967
C          10.00034184763285  -10.41837834191584   -2.15759407961714
C          10.62301623459583  -11.64302467580745   -1.87100943773833
C          11.85654689674136  -11.51221805598024   -1.28796526645887
C          12.25712128449789  -10.18008464546618   -1.07609623095521
S          10.99883197619140   -9.08788940594944   -1.62584624642665
C          13.46456832347194   -9.72303491112604   -0.57986658653211
C          13.76007598871159   -8.37381778476280   -0.40067424060241
C          15.00075292440286   -7.88533364102901   -0.07574917700351
C          15.26795064840167   -6.51736525399137    0.08560467081357
O          16.55240923060099   -6.08510898275049    0.21678013302116
C          16.54637036303364   -4.73107897646805    0.33854639778411
C          15.22413774853792   -4.28412808323975    0.31013700953874
C          14.41008059617298   -5.40928969777301    0.13654028618024
O          13.06176773953156   -5.42326911213515    0.04585578299069
O          14.74336819233929   -3.01140051571280    0.40913302873086
C          17.74211648069210   -3.98350141190382    0.38981735403289
C          18.99069204801059   -4.50671557319725    0.23928531356895
C          20.15619633647407   -3.71503145472596    0.18292969494555
C          21.39154444671204   -4.20605869437400   -0.10430292600531
C          22.54458560404101   -3.40834625666266   -0.26519690781918
S          22.48839739170938   -1.67723665227615   -0.00248896295824
C          24.15831152803466   -1.49745141530098   -0.44094691996123
N          24.71577163949503   -0.26163998242622   -0.51256570133411
C          23.98607188333225    0.89009733261148   -0.04765343576017
C          24.74573654626547   -2.71500320436275   -0.75595612686209
C          23.82673300363409   -3.79700396552836   -0.62470186797350
C          24.18320771647359   -5.21816413444310   -0.74937062973176
O          23.44789493659164   -6.10154733484030   -1.11975241625371
O          25.44496218948600   -5.44728114408316   -0.33887195074984
C          25.88912611137739   -6.78960996340299   -0.43441748249304
C          26.08141819860050   -2.81758555042811   -1.29440046448509
S          26.47095907298594   -3.95780265765821   -2.56213948402468
C          28.10188160003263   -3.42289412901378   -2.70968989295543
C          28.34933651252478   -2.40343639839102   -1.83699951030941
C          27.20214906432132   -2.06714101944362   -1.05595199853209
O          27.49817582155084   -1.04461799180125   -0.20044757701134
C          28.81145051220229   -0.73985023774326   -0.43687479370827
C          29.37605611958693   -1.50638435516607   -1.39261523707166
H          -0.95055020652064   -4.32725141160105  -10.82247227814894
H          -0.72104652082428   -6.10610499096229  -10.41554636551673
H           0.67257933517586   -2.57560158555275   -9.63393551103905
H           2.63641417564572   -2.53406719736751   -7.96958493849405
H           4.37395856698046   -3.03233974127687   -6.47870786159697
H           6.12282420898233   -4.16856956726380   -4.96548451534625
H           6.89382322903371   -6.49982091155940   -4.19206825883327
H           5.15600678248868   -8.79864203831027   -5.25510806956698
H           6.05579608484293  -11.13969086883227   -4.48955102022186
H           8.03899022272091  -12.19313453957822   -3.21846028223142
H          10.16616311539145  -12.58663621742466   -2.11076387537864
H          12.48648032013249  -12.34011911665968   -1.01308657129767
H          14.21913566414030  -10.46373621403407   -0.34896899433090
H          12.95937532959469   -7.66423427950440   -0.55685506095035
H          15.84364754841235   -8.55412481159145    0.02665415114911
H          12.74930973472340   -4.51248473079689    0.12825401418707
H          15.47963226409334   -2.40006176869493    0.51437294364704
H          17.63067753495856   -2.91226009498142    0.50824311904821
H          19.09278906219494   -5.57416859835920    0.10779023434005
H          20.04253188955364   -2.64672378104777    0.33237188726433
H          21.52462969462493   -5.26419416093023   -0.27875359722061
H          25.71806099675906   -0.22963963664429   -0.38164328309293
H          23.03290801307920    0.94756350923594   -0.57553758423438
H          24.56501174672949    1.78461150647363   -0.26408839218607
H          23.77857058271130    0.84686146980520    1.02803594642690
H          25.88676133643218   -7.11386404282051   -1.47727271895513
H          25.23522721505489   -7.44871581010054    0.14016437100802
H          26.89892734849143   -6.80418015675170   -0.03254024655352
H          28.75446992085589   -3.89568610548186   -3.41372299690852
H          29.21734535504875    0.05465714948062    0.15947090561631
H          30.38515826299902   -1.45379918446595   -1.74479591891609
