87
 SCF done       -172.780157388473          0.000544859815
C          14.43393925821226   -8.63890818489917  -15.91463807213213
C          14.61958553857752   -8.15096235628557  -14.67856898100680
C          14.95303246630533   -6.81011077871416  -14.30215404369162
C          15.07210425527609   -6.62064631997507  -12.96603163465426
C          14.84334510932513   -7.78581895303659  -12.18935015917326
S          14.47159557636238   -9.14443989284485  -13.21926860641022
C          14.88693846577938   -7.88750254458676  -10.80846191676567
C          15.16730050786582   -6.86928424619759   -9.87941777897561
C          15.11835368495107   -7.28645025899259   -8.57604217720510
C          14.80011948157811   -8.64472941924646   -8.41767397720478
S          14.56606507250798   -9.39525288649829   -9.97687774401686
C          14.66845318901272   -9.31857347895637   -7.20572231159577
C          14.34910506022570  -10.64575232889112   -7.04913161061989
C          14.20003360717354  -11.26004444446075   -5.80391563039488
C          13.86953841896575  -12.58964259870247   -5.52760139590811
C          13.77607907227065  -12.88123056049826   -4.18326274995852
C          14.02961065883140  -11.78619296480584   -3.35551746019485
S          14.40096379705915  -10.37412431761979   -4.30904184560402
C          14.00378878507199  -11.68954432545990   -1.95946228441065
C          13.72402703095875  -12.65099215714639   -0.98649122821446
C          13.77114463188877  -12.16158483876109    0.30008231878940
C          14.08643664456216  -10.79851188924956    0.38883438743279
S          14.33820640051483  -10.14951704116256   -1.21072844316185
C          14.17924101694404  -10.02452983055741    1.54489268204569
C          14.46313110972907   -8.67599528316912    1.59851861530039
S          14.77732503464978   -7.73772707871063    0.16617695961208
C          14.99719531511194   -6.24358408782720    1.04849426455744
C          14.83058324067849   -6.46992566195505    2.43556989843940
C          14.54010073011973   -7.82872431308899    2.74411743170112
C          14.36024246848604   -8.21770554330609    4.07246343200446
C          14.46839229091757   -7.27048563638832    5.06643234001503
C          14.28388239180819   -7.64690131838380    6.50696914831050
F          14.07124343842799   -8.95831098098985    6.69124542007643
F          15.35434169556887   -7.32828074505104    7.25787158011442
F          13.23713035102155   -7.01264513926632    7.06894375393628
C          14.75064702853480   -5.92715442834137    4.76957071273433
C          14.92986128217643   -5.52809074349582    3.47059452841770
C          15.29497608329507   -5.10208597586584    0.30963671198396
S          15.48936561530679   -3.47746800637055    0.95137398913691
C          15.77130698622416   -2.73837280036657   -0.62372107849014
C          15.77088551095335   -3.75210711567595   -1.59218845428257
C          15.49330520737714   -5.03587342297694   -1.07492335961864
N          15.56708793594810   -5.88213966695814   -2.14658888077093
C          15.90021058061375   -5.09942757082591   -3.21501984959910
N          16.04185155553884   -3.84042620496870   -2.92552751293940
C          16.01684324593144   -1.37658358166166   -0.75214026746419
C          15.87355821217320   -0.68920354041019   -1.94369879499025
C          16.43701839925842    0.58718042344324   -2.28164489194146
C          17.32531079614869    1.32231115276606   -1.52798295441686
C          17.86198995101372    2.56117475719929   -1.92471752201029
N          18.32385247157519    3.57872141000915   -2.19308646818081
C          17.82392797353793    0.93426878397534   -0.27002075100454
N          18.28808130932306    0.67852321769922    0.74991674850774
C          15.97055712891722    0.94136933445323   -3.62188274284428
C          15.10655638531728   -0.08022493428248   -4.08250626008735
C          14.96339268586862   -1.11031795400351   -3.02920732723593
O          14.15374680804656   -2.01359089211923   -3.02040669690709
C          14.51643750514336   -0.04902587943674   -5.32042340787905
C          14.80437021871641    1.03823097617106   -6.15381042174265
C          15.66517258693962    2.05556244638408   -5.68413651877699
C          16.25395027565196    2.02926084293345   -4.42461720420899
S          15.88450571532023    3.30637788442926   -6.87249859141821
C          14.83456894681835    2.45086799319334   -7.97018301380962
C          14.34159253823563    1.29195380375584   -7.47479306221784
Br         14.48985477474222    3.16538270684116   -9.67113315691541
H          14.53216851217914   -8.00152086637222  -16.77547737632572
H          14.18420989700493   -9.66998696095573  -16.08449065423979
H          15.08781213886394   -6.04612449839962  -15.04656956952030
H          15.31570359956598   -5.67872574333261  -12.50830712279117
H          15.39482827257437   -5.86307960464978  -10.18076666455761
H          15.30072640272465   -6.64704750193282   -7.73039073167617
H          14.82737876880204   -8.72424812326695   -6.31378656350976
H          14.19345847450890  -11.25966069516528   -7.92675025720450
H          13.70255742500706  -13.30676556831002   -6.31183892041453
H          13.52781946907997  -13.85143907407615   -3.79220597965180
H          13.49150683261113  -13.67122953089789   -1.23357244448513
H          13.57940494642873  -12.75527785313215    1.17634158762526
H          13.99800385068723  -10.53661384038966    2.47952003879001
H          14.14292353350041   -9.24472379777325    4.31928530899573
H          14.82596795114318   -5.21547153284135    5.57671013338235
H          15.14799883002979   -4.49811837352270    3.24164935800247
H          15.40570414854720   -6.87577230792351   -2.15166583577311
H          16.03689683588330   -5.50503035659083   -4.19823201134309
H          16.33038053908798   -0.84628709993795    0.13761436809931
H          13.85994874882388   -0.84252600045863   -5.64113145053421
H          16.89933820200161    2.83278117255831   -4.11145185090919
H          13.67892110937007    0.64124754741388   -8.01573904368345
