92
 SCF done       -158.099803966703          0.000621301542
C          25.63765573112926  -18.46387725646533    5.02216445692019
C          24.63716200834424  -17.57734973996928    5.15116151105858
C          24.22803588658429  -16.87584233832244    6.32892519836340
C          23.17464157337294  -16.04109989499696    6.14356023445283
C          22.67307054162816  -16.01818822942659    4.82015985600867
S          23.59334853870260  -17.10277558867543    3.80173207752264
C          21.60851205260180  -15.27373593908986    4.33706714278426
C          20.78791191496722  -14.37716704730662    5.04273762430741
C          19.80698022548280  -13.80518439361223    4.27341455642976
C          19.80820952935275  -14.22088822539951    2.93501251855571
S          21.10273725132860  -15.36633538979819    2.66359041445074
C          18.92079270160277  -13.82489289516316    1.93534635912578
C          18.95386444852285  -14.27123372926334    0.63748457194548
C          18.04161869339932  -13.90756958711836   -0.35502476909986
C          18.02062302412437  -14.35397298031570   -1.67898243314563
C          16.97721817716928  -13.85179296334374   -2.42404397282563
C          16.14104616260784  -12.98905041646617   -1.71065448799024
S          16.70574427009651  -12.81297022539339   -0.07003777885936
C          14.98465764228189  -12.34054918404024   -2.15911971626357
C          14.38727658798388  -12.44756595066871   -3.41928790485009
C          13.22950110463493  -11.71594486497505   -3.53849407174674
C          12.88629503513190  -11.00944783814117   -2.37848185350231
S          14.06420173058443  -11.27316359783053   -1.12252190506040
C          11.76476025395206  -10.21176254385647   -2.17636063909183
C          11.54042242051842   -9.55780363117868   -0.98317451225873
S          10.05194250367996   -8.58802187378312   -0.69252785982489
C          10.66561428233086   -8.25177848099269    0.87754835535329
C          11.92504921195446   -8.87725867951603    1.05724141953776
N          12.37372451776723   -9.57928871945149    0.04744045563321
C          12.47438983876156   -8.57413812756451    2.41470067360866
C          11.38406683676934   -7.71394541448132    2.98558270967507
C          10.34017240923092   -7.56292467849774    2.04205017682929
S           9.05078988358747   -6.60583786540692    2.65147806032001
C           9.91038063152062   -6.38836459978547    4.18054605189776
C          11.14822754124436   -7.05571079489863    4.16572233753576
C           9.31443869700783   -5.64089677160895    5.18919545294475
C           9.89132608363788   -5.32237225094314    6.40725965982974
C           9.23121143411871   -4.60483396597544    7.38605634741507
C           9.78342815198219   -4.21468898677747    8.60265260120937
C           9.13982592073652   -3.52258388115542    9.63489584654616
C           9.94484746722455   -3.24867218284725   10.71640418655242
C          11.25646816958188   -3.70774789749995   10.57149807850047
S          11.45241711858416   -4.51902119507261    9.03915573670549
C          12.31988373309948   -3.55176528116512   11.46930931665034
C          12.29600310868145   -2.93441755549888   12.72134999242645
C          13.52064453636024   -2.91454468768026   13.35179070167772
C          14.54929690813995   -3.51068763489472   12.61896266809991
S          13.92900410670178   -4.11851970796858   11.10038905075040
C          15.89158419459891   -3.61417860116994   12.99125975047136
C          16.87940487570647   -4.18306041383180   12.22713623531063
C          18.22226014467923   -4.26023073285318   12.59559914317717
C          19.27026076326155   -4.81331058927073   11.84862840936078
C          20.49741818475515   -4.74006258636638   12.45765929140132
C          20.46630334354721   -4.12243945428489   13.71926203643937
S          18.83135754117860   -3.63660712114070   14.11336520919042
C          21.52478971072500   -3.89124822671523   14.58392334713679
C          22.88457646797283   -4.23011737756469   14.38664018553703
C          23.70392223117187   -3.87756555567368   15.40924020630285
C          23.04026191170780   -3.22893473133530   16.49792297601550
S          21.31296254546062   -3.09975307757120   16.12992854100460
C          23.57912711337482   -2.76813702757370   17.63864007474459
H          26.24821258473310  -18.72757527540102    5.86736722005065
H          25.85664840975517  -18.93635456876115    4.08265624416576
H          24.73748484924200  -17.02513047626732    7.26414578168110
H          22.73792493903975  -15.43805620772257    6.92000113519743
H          20.92869418445480  -14.17284302823742    6.08878619059200
H          19.08509149921318  -13.09799627633214    4.64280927572865
H          18.14902180108986  -13.12161069768046    2.22236733776803
H          19.73080324797472  -14.96822064631677    0.34842569286285
H          18.76144672634616  -15.03487437877273   -2.05959368324019
H          16.80746679651804  -14.09284450717726   -3.45777489210314
H          14.79676766128068  -13.05446570228801   -4.20688995302652
H          12.62417242748006  -11.67710344017002   -4.42697844582586
H          11.04445524917181  -10.11066563536153   -2.97346038959419
H          13.42983981168789   -8.04986558438466    2.35129653377664
H          12.63362243879055   -9.48419577827362    2.99612506497338
H          11.81494116505200   -7.04586947537203    5.00846293658306
H           8.31560663421740   -5.27214857764115    4.99379509128978
H          10.90577072377014   -5.63735681986646    6.61066811525798
H           8.20346160716104   -4.31275911023951    7.21091573705028
H           8.10423817199050   -3.23913169350629    9.56684762931184
H           9.61294029201368   -2.72373093445893   11.59388953621304
H          11.39853537643944   -2.51713905162253   13.14097149742309
H          13.69361105968240   -2.47867215613351   14.31993545200175
H          16.15693523240209   -3.19849676069161   13.95544518994000
H          16.61626736348967   -4.59959401890221   11.26265923128935
H          19.10218340927069   -5.25085924438310   10.88009443956206
H          21.40760513007462   -5.11323119875717   12.02441510952818
H          23.21540386924185   -4.72564451961700   13.49099140955298
H          24.76463487352047   -4.05341275641485   15.43624965690897
H          24.63433396002018   -2.86439540274084   17.82351259241057
H          22.98224887795833   -2.29155489682190   18.39432335950509
