110
 SCF done       -187.356490812018          0.000500820897
C          11.96932775590349   -5.75297056701517   -8.70917660379147
C          11.40583499362543   -5.22533033667395   -7.61490761369397
C          11.98401549193077   -4.28474584412743   -6.69626280156870
C          11.17655736100782   -3.93173027547776   -5.67408158559942
C           9.89613120466676   -4.55724341871012   -5.69181520096728
S           9.76270827186711   -5.61910233002437   -7.08371784089494
C           8.88012857826061   -4.39788321928699   -4.78741218980736
C           8.86893701012738   -3.59661441460033   -3.61390284340102
C           7.71253595603776   -3.65875198663230   -2.91430651612899
C           6.71519320082069   -4.51694362220612   -3.47288352175993
S           7.34097225215009   -5.22770622722041   -4.95783471413642
C           5.46626496523278   -4.66441022974707   -2.95457305967232
C           4.35150844512085   -5.44230013442105   -3.38735969568943
S           2.78066655773044   -4.70063996891552   -3.12258496956648
C           1.98098546906294   -6.04241749159828   -3.81988138952523
C           2.84976903891729   -7.01946071958964   -4.20275413976390
C           4.20836425106175   -6.69252531635988   -3.95323162025907
C           5.29081754325717   -7.70415599237973   -4.15489551374163
C           4.85012214862678   -8.79970876733112   -5.12191568548452
C           3.50711874225144   -9.37853082922165   -4.69416053967299
C           2.41809727695113   -8.31380457874842   -4.84351086355263
C           1.10019499728014   -8.72490434948099   -4.21906508282343
O           0.02041385141944   -8.55172460982411   -4.71784288819748
O           1.28338794762023   -9.27625543255150   -3.00316997338657
C           0.17720137220535   -9.59726367099204   -2.26200644611462
C           0.28841658099853  -10.29377143657071   -1.12911968792709
C          -0.82577795376967  -10.63606213687937   -0.29492289386388
C          -0.78362010947488  -11.42926084414380    0.81345676858661
C          -2.04218552280560  -11.60170452820110    1.45786472608808
C          -3.04871968031604  -10.87405731103697    0.77258061942776
S          -2.43507465956228  -10.03580839723550   -0.62334968569838
C          -4.38804846265168  -10.79255620575983    1.13288958686931
O          -5.12870369499114  -10.01211170476898    0.29594276408085
C          -6.49176472532305   -9.77113962933740    0.52915169279983
C          -4.77972317555059  -11.50315450874691    2.27895457325359
C          -3.77716108551703  -12.24209973073156    2.95636321206325
C          -2.43692304309093  -12.32148133648220    2.59752067377911
O          -1.69536668736394  -13.10184526493274    3.43405011926627
C          -0.34495653397010  -13.38019108079490    3.17010940089302
S          -4.39658277952275  -13.08191161691004    4.34701049985213
C          -5.99791105016096  -12.44590143369204    4.03918090137430
C          -6.03671564371546  -11.65045274696840    2.93340024143429
C          -7.08331779284456  -12.78294995969584    4.91388616315826
S          -7.06425366804765  -14.29760225716984    5.77330331310026
C          -8.56674869643237  -13.93603507221165    6.51394154821316
C          -9.05750572121536  -12.72321043787807    6.13298509043472
C          -8.20945005266353  -12.05321615056876    5.21489713875700
C          -8.51820880300870  -10.67328004821016    4.73024863917027
C          -9.44734632741002   -9.97626365394013    5.72093157005443
C         -10.69442852398711  -10.82351425599689    5.93834523285579
C         -10.35402435467410  -12.14094766992632    6.63930105002818
C         -11.42886368714931  -13.17751193009115    6.36969637137795
O         -12.08038322656515  -13.26262491823516    5.36316989388652
O         -11.53429812398454  -14.02715520329423    7.40921539621672
C         -12.41173144138912  -15.07510392941609    7.31820669162966
C         -12.53310591162376  -15.95481649098297    8.32473539165189
C         -13.42337374509385  -17.05865730823222    8.28501903109247
C         -13.55815566535518  -17.97240159458745    9.28600958742125
C         -14.43054744055161  -19.09887054973669    9.30139385503972
C         -14.35865467903201  -19.84994610208630   10.42656011119726
C         -13.42405124801844  -19.37291704073196   11.38487283879866
S         -12.64009516748368  -17.92009888924097   10.78877459608897
C         -13.12635044808965  -19.91464062082250   12.60872002107388
C         -13.68793570503389  -21.08517876488371   13.19659601907927
C         -13.19971314349692  -21.38456435579479   14.41889797662492
C         -12.20505212855452  -20.46868104274483   14.90289901205906
S         -11.94037781243480  -19.20579192013050   13.68956663542962
C         -11.55065366202280  -20.51230250114752   16.07057584994813
H          12.97085875597804   -5.48362542046933   -8.99477825445518
H          11.44608789620795   -6.45388261863637   -9.33330450244894
H          12.98384918363287   -3.91754227362997   -6.84687434650011
H          11.44852526776395   -3.23948906232837   -4.89678537896246
H           9.71912988268903   -3.00344096721204   -3.32830248602602
H           7.52322235549213   -3.12001795948222   -2.00227964746131
H           5.24174097508324   -4.00705031849927   -2.12125900824416
H           0.91316272663158   -6.03362922409512   -3.91538139084848
H           5.52928301499461   -8.14958195956815   -3.18255214587056
H           6.20089050513808   -7.23496957330173   -4.52463076637203
H           5.60565908837655   -9.58644349658199   -5.14344668999448
H           4.76677795073363   -8.38531358700412   -6.12854312740846
H           3.56283397049306   -9.69818506690651   -3.65229412014439
H           3.25090502966490  -10.24566286933052   -5.30573047511380
H           2.22270263777596   -8.12868122151237   -5.90695693853607
H          -0.76910985199359   -9.25199898125454   -2.65909582302007
H           1.26252044694959  -10.62932072083253   -0.80115882473798
H           0.13980596561083  -11.86783337476838    1.14054546357081
H          -7.08185427971341  -10.68962286190457    0.45563334286578
H          -6.79897226102026   -9.08766922599914   -0.26225935952875
H          -6.65682482287818   -9.29271840997671    1.49923165291000
H           0.27372707870337  -12.48101652072746    3.24883160003172
H          -0.21384277483872  -13.84404162017774    2.18805800200427
H          -0.04333130830648  -14.08709983345130    3.94292530656135
H          -6.95687092735353  -11.22585668602953    2.58682572432703
H          -9.00245096163328  -14.63863291584889    7.19642577779724
H          -9.01429607921258  -10.72668183937403    3.75568470510383
H          -7.59079097272445  -10.10901286414295    4.60653759049325
H          -9.72857987686947   -8.99563848036271    5.33412958607411
H          -8.92900869805760   -9.83106528047244    6.67122365016974
H         -11.15104036177190  -11.05410028910655    4.97330156799737
H         -11.42738897002438  -10.27852446786405    6.53555924883624
H         -10.27686738907417  -12.00343742907812    7.72301394864182
H         -12.97583160597093  -15.13021797238251    6.39613709570954
H         -11.92851153637389  -15.82676736849960    9.21224460878807
H         -14.03298954667788  -17.18319561231858    7.40060597261857
H         -15.07968359386344  -19.30584258073770    8.46874967677081
H         -14.94568232169322  -20.73346097739596   10.60323088543206
H         -14.43704492772670  -21.66303170640034   12.68459592006230
H         -13.50254066171541  -22.22810035406390   15.01377851799398
H         -11.74238371545881  -21.29931605056779   16.77843300795534
H         -10.81870456729351  -19.77202304400318   16.33666119565439
