114
 SCF done       -189.748072647021          0.000823792508
C           9.63121819881888  -10.80912654709292    0.55889105421474
C           9.71649994076589  -10.09573005029147   -0.57261549284742
C          10.54599819594154  -10.34644158588962   -1.71318379145220
C          10.37386292735949   -9.47040289414715   -2.73097146887166
C           9.41311960762532   -8.45742777283537   -2.47516331203910
S           8.73273696569168   -8.65089407566727   -0.87360221421589
C           9.02036600240817   -7.42780965229186   -3.30609266861339
C           9.48188886695204   -7.09435111625970   -4.59513498220245
C           8.89469581815277   -5.97366282584253   -5.10915903988815
C           7.96667569034221   -5.34139774321468   -4.25105042049877
S           7.80013399940214   -6.28233248431691   -2.79064211338657
C           7.27420287131199   -4.18330635561017   -4.58598453144994
C           6.46861949512465   -3.31837623899065   -3.85947777844644
C           6.24037373359254   -3.16039844109547   -2.49756978420340
C           5.37657768223793   -2.18442331346900   -1.95382300600811
C           5.33908225650846   -2.14352457330391   -0.58716928017524
C           6.18196261385984   -3.09107409596437    0.02033367142517
S           7.03150517130279   -4.01553594873167   -1.19775535667785
C           6.39722566015380   -3.36619948187175    1.35865097410955
C           5.95052522425109   -2.66439442256993    2.49917840660088
C           6.38864175256707   -3.18244346128488    3.67785504971451
C           7.20213301730042   -4.34496251803121    3.54228098279865
S           7.36888647621609   -4.74753387639963    1.82864552531984
C           7.72356789687719   -5.10403977426478    4.54023321914138
C           8.45594028174542   -6.33944929444969    4.33005930797905
C           8.01075103993401   -7.49339681347849    4.99217009661951
C           8.52058749256702   -8.74393362600293    4.71639370662655
C           9.52042739509293   -8.90350893859548    3.76303703729721
C          10.02668742530123   -7.77880113147646    3.15391207312799
C           9.53067427386334   -6.50370910797906    3.45267705469814
N          10.30694731349911   -5.54410294930215    2.81062858449575
C          10.35063993572058   -4.13723714507534    3.11335623325838
C          11.28564599435506   -6.12465680895927    2.04889635105855
O          12.12658644156648   -5.51772891213127    1.42705081601487
C          11.16252882088827   -7.63751266707400    2.19069184690254
C          12.49315160801735   -8.20169720191153    2.73012083967042
C          12.46739164700745   -9.72737795086191    2.75832688826144
O          12.33325417320400  -10.47977231547936    1.81997697239878
N          12.60901375846016  -10.12303211377220    4.05918527127793
C          12.60405045853838  -11.49823299354983    4.47573232569600
C          12.74282492440868   -9.03567717299859    4.91357546465802
C          12.88263011746386   -9.02668438340152    6.28162081139693
C          13.00167840165943   -7.79092653637986    6.94272954329001
C          12.98603932172855   -6.61267822894194    6.18299819718820
C          12.84487452798820   -6.63644522618362    4.80618671669458
C          12.71525177438195   -7.85126403974528    4.16783285398398
C          13.13646960555038   -7.79586853712128    8.37422892908416
C          13.27857143251720   -6.71625667644600    9.18725676447001
C          13.40199898749812   -6.81110001261013   10.58485225420752
C          13.55151913549717   -5.73758210579449   11.42810733487902
C          13.68011304534580   -5.76931671124361   12.83568770368152
C          13.82015686768737   -4.54169385079287   13.41525273303895
C          13.81002064234729   -3.47160967311037   12.50008820131744
S          13.61243107525378   -4.07092184864740   10.86919868312190
C          13.93825960343181   -2.11751385835347   12.77704442114330
C          14.10738050630562   -1.50613894429263   14.03082348004429
C          14.21316706117029   -0.14183546809809   13.97082167884286
C          14.13283489164965    0.38722215785182   12.67257029123467
S          13.91220480948313   -0.90830795554577   11.51335357181275
C          14.21602082065782    1.72460847703966   12.31185524183965
C          14.12896906940084    2.19992098338129   11.01901793576501
C          14.22508529715657    3.53607046857464   10.65982498673772
C          14.13871783185675    4.06847348400517    9.36062821738117
C          14.27733692155885    5.42706264270761    9.29768288444610
C          14.48068154894023    6.03698518827538   10.55202232810915
S          14.48801602053328    4.82533619164444   11.81738619042452
C          14.66430157521043    7.37868776167547   10.82521651439826
C          14.68539499361225    8.45084775596302    9.89742727334000
C          14.89422991031983    9.66822859218825   10.45363210044709
C          15.05615610651467    9.64746850966181   11.87655943005872
S          14.92133265081007    7.97762669794411   12.45058941320372
C          15.27821898134923   10.68587102332791   12.69691509444691
H          10.25858800727013  -11.66799992739455    0.71159848316765
H           8.95678909961213  -10.52709370338902    1.34710867642434
H          11.23479514924767  -11.17172840179831   -1.71570597918885
H          10.90596583986965   -9.51089331155855   -3.66495344174951
H          10.23592692636961   -7.66924009231367   -5.10202597889303
H           9.12861272881919   -5.56270757747485   -6.07626054485982
H           7.39466653299453   -3.90870695201678   -5.62891310380974
H           5.95510945271551   -2.57490866753251   -4.46023936534047
H           4.79499676869246   -1.53858947069600   -2.58919870899917
H           4.71677193968177   -1.47736007871715   -0.01658446081481
H           5.33038168731034   -1.78952624907767    2.41373692365848
H           6.15860811447567   -2.77670677422648    4.64732049944908
H           7.44367327361038   -4.86251338859323    5.55745313026003
H           7.20838167273439   -7.39034980573004    5.70818830608197
H           8.12877151668539   -9.60663040606079    5.23378151362031
H           9.90229093905743   -9.88282586505564    3.52092971674110
H          10.24684543904667   -3.98532362602578    4.18868346593377
H           9.56894400260611   -3.58193763141238    2.59512775065741
H          11.31895552591220   -3.76656306152132    2.77442672390940
H          10.95358847074917   -8.10317580477429    1.22291635222131
H          13.29412143000885   -7.84851326333960    2.07270116244363
H          12.48675754997612  -12.11049133013934    3.58208754766599
H          11.77473909028038  -11.68867116234215    5.16089679003294
H          13.54375799782993  -11.75420052552395    4.96945081592860
H          12.90104038992673   -9.94448291796559    6.84940004309994
H          13.08618579652154   -5.66063400665244    6.67856238753622
H          12.84674202299152   -5.71670327904882    4.24191809208151
H          13.12162468255061   -8.77464482983320    8.83893913855872
H          13.30329825645968   -5.71756859548680    8.77305563249846
H          13.37905430988093   -7.79426659128368   11.03693632485392
H          13.66632127952381   -6.69878148413432   13.37719439037415
H          13.93090422939521   -4.38339005498157   14.47299326907575
H          14.14916212825263   -2.07398119368251   14.94267092875507
H          14.34812350000339    0.49330946300989   14.82859973427455
H          14.36115102434318    2.43786459047525   13.11360077080286
H          13.97516602032473    1.48800170461545   10.21743698609052
H          13.97892472838056    3.43562229180929    8.50527392415193
H          14.24004277560331    5.99544657419819    8.38618851131876
H          14.54456391412544    8.28329369838566    8.84436496346623
H          14.94196027204732   10.59392260289692    9.90842937217141
H          15.35455642971337   11.68558683171496   12.30728487056383
H          15.38752249287199   10.55519277243750   13.75799811943491
