145
 SCF done       -206.946131862983          0.000272181070
C           7.45851580161120    5.92749958027891   -1.54003007581390
C           7.45708229478181    4.66304819302224   -1.98791296375556
C           6.90584084663142    4.16379082137391   -3.21255050457280
C           7.05786743443498    2.83027756420582   -3.39100965786762
C           7.73635779216547    2.17034808308027   -2.33386387527535
S           8.17934433598112    3.31992726934754   -1.08763796402955
C           8.03799163151830    0.82731355282643   -2.24109366642141
C           7.73930343884667   -0.19520373500400   -3.16693860718600
C           8.18136531371623   -1.42994010050363   -2.78754245848971
C           8.85142903482295   -1.45285097182271   -1.54848165700420
S           8.89879302814817    0.16277030540835   -0.86690981183264
C           9.41298177330187   -2.55535968725247   -0.92977272727141
C          10.07302190703573   -2.52781654712737    0.28654405203011
C          10.65759660656854   -3.62628228386037    0.89148867789791
C          11.35216644551091   -3.64598257976490    2.11685934225841
C          11.84721864533268   -4.87025109781064    2.46481124458914
C          11.56581079598927   -5.88641348927988    1.52794662575747
S          10.64191424209127   -5.23352046700091    0.18974745915405
C          11.93613136965917   -7.21521663451916    1.57778563154831
C          12.70509588529096   -7.86016092671398    2.57870646189602
C          12.93409584281205   -9.17662665138330    2.35227183297212
C          12.35087853462242   -9.67829696146508    1.14648398165868
S          11.49618038648558   -8.35777177200217    0.32701411875051
C          12.37694701072500  -10.91932480681311    0.62339578689122
C          13.06206123122861  -12.10343756987009    1.22252777181866
C          13.80771170618122  -12.88375074524441    0.12999077634099
C          14.44077946961953  -14.13215876563978    0.72462212057855
C          13.35160536734010  -15.03158435436375    1.32483234892675
C          12.68985411612445  -14.26967004453437    2.47554433954333
C          12.03097404959408  -13.00889705089120    1.92004813547436
N          13.81026625251989  -16.35979161838269    1.67220361864618
C          14.90064563837692  -16.41463539093557    2.63486327193969
C          14.84972446410293  -17.68859134164351    3.47121174759284
C          14.02189830056534  -17.19968757096782    0.50000106271654
C          14.26539877616373  -16.42910334715635   -0.80252082076447
S          15.44237093799753  -15.05786491090116   -0.51241054968170
C          14.75001588325617  -17.37944983864443   -1.88379494472023
C          13.64263177756704  -18.39560137268461   -2.16087978792813
C          13.23016063581940  -19.12593449142071   -0.88476983112265
C          12.82803531519362  -18.15994314444777    0.23468574360891
C          12.45042529297507  -18.89578286767879    1.47662538137285
C          11.64277800274944  -18.38999577898748    2.41370409204905
C          11.28764248282866  -19.02749482530750    3.65354391252138
C          11.39328711133024  -20.34481231984561    3.91875940304556
C          11.04255576415100  -20.94023429821258    5.16373299790039
O          10.69274962244726  -20.18795613981861    6.23948348064579
C          10.40364198194187  -21.02222693144457    7.27262772801585
C          10.56615213639887  -22.33293238188883    6.85213651747121
C          10.98088019968017  -22.28272158686308    5.50529453321735
O          11.26060229986945  -23.33626395545577    4.70008078641474
O          10.38850459732534  -23.49704210487362    7.54325283143783
C          10.03192380469263  -20.50697685269958    8.54823301007654
C          10.01967630776866  -19.19559207906035    8.86323899773167
C           9.66847561223602  -18.69044801454408   10.15673858329698
C           9.74349436808846  -17.39477046667057   10.47825971785477
C           9.44322073839028  -16.77068961910889   11.80509593204008
C          10.75756657395304  -16.27646604497727   12.43806100067501
C          10.46176573630066  -15.56910754307165   13.75245091289429
C           9.77824766136151  -16.54186759987779   14.72672561426078
C           8.44351527570683  -16.95898662648344   14.10610460526087
C           8.70554547183059  -17.68269581439626   12.78624988420220
N           9.66708100408520  -16.08625331031672   16.09171172986878
C           8.64554895214051  -15.12571418645212   16.44836913027708
C           8.80781457150330  -13.69682493035386   15.90992853606877
C          10.93085698907521  -15.92787144857115   16.79936971317147
C          12.16696748938442  -16.00270394946641   15.90448382348231
S          11.98377027096188  -14.85344749197389   14.49327902328867
C          13.41930687738192  -15.66918742599174   16.69990318374279
C          13.59149845834370  -16.69941295722017   17.81303000157602
C          12.35594769397324  -16.73737482083127   18.70677294963600
C          11.07976277637834  -17.01056262906665   17.90333372109108
C           9.88621455952182  -17.01341602060454   18.80439757195167
C           8.93229080591955  -17.92508042322003   18.77735172162923
H           7.00914815582512    6.71473322533971   -2.11907575356396
H           7.90431964698554    6.19372281552418   -0.59950798663600
H           6.41956333644907    4.82623725618406   -3.90647169699374
H           6.70516232164112    2.29128590446046   -4.25258485150725
H           7.21124494770799    0.00200714785954   -4.08250270926740
H           8.04609025706143   -2.32696274307647   -3.36631908830672
H           9.33053217652416   -3.50337125718694   -1.44688843319992
H          10.15037530843459   -1.58132781792689    0.80705031921638
H          11.47010915910222   -2.75389972080261    2.70683036533660
H          12.40318743282325   -5.06324049420676    3.36463370367864
H          13.06922865645695   -7.32440655387810    3.43753658746694
H          13.49749188368947   -9.81192382229784    3.01146218325779
H          11.84516705665525  -11.09918970842464   -0.30013897103572
H          13.79080378255769  -11.77603196654288    1.96981455388945
H          14.57686068838177  -12.24997117420487   -0.31579882897370
H          13.11033123104062  -13.17049118135373   -0.66107354276081
H          15.15961441394989  -13.84908233600025    1.49805410983950
H          12.56438478552743  -15.17467282034782    0.57577440911240
H          13.42301021215073  -13.98810331906729    3.23264650529683
H          11.94628049931623  -14.91269641412615    2.94801791905128
H          11.55442461106587  -12.44941705073214    2.72756599910627
H          11.25421075499726  -13.28488625299278    1.20323119904710
H          15.88308887804023  -16.34016121506552    2.14137711931309
H          14.80151983763349  -15.56321930657392    3.30815084352752
H          14.97149593047523  -18.57234347078165    2.85164086087395
H          13.89357973340048  -17.76396002475765    3.98049085504265
H          15.64732556979748  -17.67115606426223    4.21020218813288
H          14.90670407062274  -17.81533402079682    0.69142206769771
H          13.34535715798510  -15.95578817646491   -1.15727388186703
H          15.65871854781425  -17.88601213413056   -1.55290187726360
H          14.98919094343239  -16.82062504195252   -2.79067310071519
H          13.98388322110707  -19.11874610933425   -2.90381021681293
H          12.77656850325271  -17.87498630238072   -2.57705144255958
H          14.06574376772839  -19.73788330158310   -0.53603506984863
H          12.39471035704204  -19.79549390588392   -1.10056593281412
H          11.97784151745224  -17.54967574444710   -0.08995482385621
H          12.91667546523536  -19.85959492459930    1.62136934664750
H          11.23650464250917  -17.39861394117134    2.26203846588640
H          10.88261071264789  -18.38591083157984    4.42505811503187
H          11.73257912493710  -21.04602980778869    3.17186701323029
H          11.12310459669314  -24.14136910220450    5.21509284131983
H          10.10704745792543  -23.29272673784276    8.44074322387456
H           9.76245741208028  -21.24273752651822    9.29664706393375
H          10.30619099992390  -18.47811330737023    8.10782326775978
H           9.33711027747661  -19.42162795186784   10.88102069926268
H          10.09106710784980  -16.69585403492193    9.72716299735372
H           8.81620670998868  -15.88720795565461   11.62302747287434
H          11.26721410909523  -15.59246795127426   11.75674433757105
H          11.42017198855355  -17.12748547291302   12.61440734036477
H           9.81856807392880  -14.70880828068255   13.55941650209785
H          10.38955517444507  -17.45386440243344   14.76850367940027
H           7.81780150557987  -16.08424500180883   13.92226313102421
H           7.91953450114601  -17.61784157070236   14.80039361029093
H           7.75901788735921  -18.00200872352167   12.34541951935942
H           9.30677518730839  -18.57245661324039   12.98310044501341
H           7.68069690638497  -15.52696101083372   16.13161182718476
H           8.63223747397277  -15.09262871219992   17.54087399533234
H           8.50148859604273  -13.62603627682394   14.86941775947112
H           9.84230158932446  -13.36924989121376   15.98535666230415
H           8.18772279361908  -13.01637214742161   16.48878617024921
H          10.94169467017210  -14.94524541943496   17.28831738080192
H          12.28362902136504  -17.00272530969709   15.47847638459971
H          13.32817632560966  -14.66681943196817   17.12346223651110
H          14.28669290863768  -15.67405666926496   16.03695580638866
H          14.47200331572053  -16.45422660841318   18.40968979054113
H          13.75195530450539  -17.68528279573414   17.37004054674231
H          12.25279261734473  -15.77699481616086   19.21818370472517
H          12.47380455253542  -17.50999767298550   19.46981646095407
H          11.15275553975866  -17.98444263043908   17.40892150566017
H           9.83635949575046  -16.19168606208046   19.50801796922955
H           8.96055115599533  -18.75053311970466   18.08595360822740
H           8.08233963529835  -17.88454583990820   19.43727826022640
