104
 SCF done       -178.990271431538          0.000687770673
C          13.94410444412794  -16.72953011266420    7.22083620047545
C          14.00710690244907  -15.52415690609004    6.63687395595585
C          15.14680007590865  -14.66122954638137    6.52191215932905
C          14.90146484586167  -13.49864771219228    5.87567651613689
C          13.55905354269578  -13.34793295711686    5.43158084046005
S          12.61219422486033  -14.75127171814325    5.86593515009386
C          13.01888930372609  -12.27105643496254    4.75853202883065
C          13.67566784903837  -11.08367330109279    4.35675198260594
C          12.87257500968685  -10.18862809687921    3.71737650158307
C          11.53050985122353  -10.60783541555605    3.57502873108988
S          11.33895198018202  -12.20937417099906    4.28588809276898
C          10.40370895830021  -10.02605624420176    3.03720887177394
C          10.14293058239492   -8.78747851989235    2.42310239641634
C           8.77806957603159   -8.52415507573501    2.07297214622241
C           8.35016729312698   -7.27651526311145    1.48983293128659
N           7.06245321815150   -7.12306255443412    1.12649034730764
C           6.20227095942264   -8.07970374047411    1.36454701932524
C           6.61280853057432   -9.28854716976718    2.00902245529446
N           7.87603026975382   -9.47832652553166    2.32179173099565
C           5.66739034075108  -10.29798170291682    2.30273649511697
N           4.87003658146275  -11.08955230215270    2.53139034908334
C           4.85248683165472   -7.89081087360565    0.97571365815030
N           3.75236934643320   -7.74511285617703    0.69022800799937
C           9.24381314029158   -6.21780183266770    1.23849324093926
C          10.59583939820692   -6.48786766714731    1.52152823180218
C          11.04527514693633   -7.73700720616084    2.10606816855195
N          12.36181583552053   -7.73295612447913    2.29168140195021
S          12.97644229245417   -6.32570616250399    1.80479815063264
N          11.60825261792067   -5.63914149218319    1.32933123932292
C           8.79159288060750   -4.93771396730980    0.72217205035736
C           7.55165649182841   -4.41603904029389    1.12067790613356
C           7.12320929419160   -3.22156157899673    0.60215298720222
C           7.91472679438132   -2.50807169747877   -0.31554487901610
C           9.15076361651017   -3.00909100833760   -0.70334480114667
C           9.57942655992615   -4.21189995184973   -0.18130121013718
C           7.21552443829272   -1.29677284650654   -0.67832442966317
C           5.98973674617840   -1.26319602369328    0.01244423077139
C           5.83145722996256   -2.49088996455176    0.87781667429217
C           4.61638297690235   -3.33501801071568    0.44734662983047
C           4.68401705920961   -3.77374512958019   -1.00999439057438
C           5.69836028046641   -2.11741527421116    2.36536665894047
C           6.87097268686044   -1.28674530459725    2.87312304721489
C           5.13220644467926   -0.20454580947468   -0.14144998161541
C           5.47558452608473    0.86012708912155   -0.99357334758032
C           6.69828941790046    0.80618165940473   -1.68107729185283
C           7.56395671761420   -0.25631348915888   -1.53056776033740
C           4.55939842468471    1.96214928160694   -1.10690013492374
C           4.69663227368134    3.06786664502579   -1.87104251615495
C           3.74867934180724    4.12011985299234   -1.90929944618375
S           2.28512280280346    4.13216773743397   -0.96225090289316
C           1.77340178301389    5.67810739538222   -1.59926176240345
C           2.73821468416387    6.15859213725273   -2.47791630318268
C           3.82657909763558    5.28466638855197   -2.65835703744620
O           4.85419965333730    5.57208513498326   -3.49033620644489
O           2.73631010323598    7.38106830211153   -3.11716092635201
C           3.10748711882053    8.46593360820482   -2.28348531974491
C           0.52835567024093    6.18448766490662   -1.18063523510834
C          -0.23651859449232    7.17733670654560   -1.73546288929643
C          -1.49557804638955    7.58947424853431   -1.21603848326585
C          -2.12112483521203    8.54784192124308   -1.94458440743341
C          -1.39611745324917    8.95434693628144   -3.09275443483523
S           0.11523690802797    8.06937835839419   -3.20466693747066
C          -1.75586329907784    9.90263267560393   -4.01966373031456
C          -2.95093012496335   10.67499189991178   -4.04882372773438
C          -3.03415216257900   11.53645311056726   -5.08632582887977
C          -1.90228805491342   11.51395959207762   -5.96822742888943
S          -0.73226921854345   10.32081760548266   -5.38023124807504
C          -1.70667465975474   12.25106230790721   -7.07001670930698
H          14.81495846149468  -17.16396892456173    7.67923558234832
H          13.03142752688554  -17.29582614264272    7.25091199586842
H          16.09882793469819  -14.95063365048368    6.93014841619658
H          15.63887567877104  -12.73551391839183    5.70053902836179
H          14.72095750769049  -10.91971392764451    4.54930709668247
H          13.19366993649963   -9.23707069793943    3.33742154148064
H           9.50800125633611  -10.63293419108158    3.11647856335777
H           6.95283705845518   -4.94512505879457    1.84435686043501
H           9.76662687225596   -2.47169513967953   -1.40914535913891
H          10.53024923984959   -4.61890724684469   -0.48621277427199
H           3.70911199630231   -2.74902023540886    0.60904348114256
H           4.56153931334129   -4.22082483811100    1.08318855091213
H           4.72381120376529   -2.91132155948303   -1.67245296283673
H           3.80567418618380   -4.36379614177723   -1.25973973479796
H           5.56637402524581   -4.38515804798320   -1.18416357353498
H           5.62414072675454   -3.03670695703605    2.95001774519067
H           4.77043179867443   -1.55866247111105    2.50424992905875
H           7.80518625482744   -1.83278411298374    2.76043882575958
H           6.73468533366148   -1.05007833435019    3.92611359750011
H           6.95006665656960   -0.35456563237123    2.31785081324226
H           4.19099554402297   -0.17259550842167    0.38892084660377
H           6.97059278617197    1.61653638671578   -2.33929571338537
H           8.50159459191352   -0.27666142042682   -2.06625280816036
H           3.66356023025748    1.88788709536421   -0.50011686547086
H           5.55405597709258    3.21907296426016   -2.51107800775911
H           4.63194502588451    6.39983805265359   -3.94337765476865
H           3.02391141529748    9.35781148434577   -2.90113468849462
H           4.13704762991283    8.35412966918618   -1.92489979178628
H           2.43819856555588    8.55445905669223   -1.42310292599905
H           0.09193805884979    5.67264069520047   -0.33166656536228
H          -1.88974294028463    7.15432041978410   -0.31431591827778
H          -3.07552430132973    8.97364445189095   -1.69154672765678
H          -3.70906714534265   10.55986111854954   -3.29439599454054
H          -3.86039019436608   12.19963845039148   -5.27188816983690
H          -2.44488417043303   12.96470736423696   -7.39089470276835
H          -0.81671856424786   12.15508747075028   -7.66438141315905
