101
 SCF done       -175.141373310887          0.000695337621
C           3.31414094544216  -14.74766805150129    2.62446782271807
C           4.13903275862764  -14.67772878075166    1.56719914829990
C           4.51430223214906  -15.73168684265734    0.67420640154101
C           5.36679451017542  -15.35045152313419   -0.30867716537868
C           5.72926937808472  -13.98116929164507   -0.27039485391049
S           4.94593190258861  -13.18078794772421    1.07169410690224
C           6.57247193284163  -13.30623759720488   -1.13719513835864
C           7.25207084190545  -13.82842952764614   -2.25513097886342
C           8.00465685671643  -12.89512786670262   -2.90627614223200
C           7.96215246427147  -11.59955572377225   -2.34108701482293
S           6.91385065025527  -11.59990591321350   -0.94249135786308
C           8.68062147823927  -10.54415054826221   -2.87452412350020
C           8.83258222347738   -9.21294880785438   -2.48945247581754
C           9.67399630503360   -8.36697716895114   -3.27757465939768
C           9.91841952482502   -6.99780157466038   -2.92087746224767
N          10.65642351882054   -6.23694287520846   -3.72102693655652
C          11.18959979600039   -6.73680960240331   -4.82520351901589
C          10.98444332797470   -8.10189306225486   -5.14440924415805
N          10.23466557788425   -8.87410947522741   -4.37682821849398
C          11.57572679013587   -8.66360865719590   -6.30172680798391
N          12.06713724661392   -9.09705947128467   -7.24205048041952
C          11.95503589862567   -5.89351464249394   -5.66061023810811
N          12.58014636541635   -5.23321222024346   -6.35936985190600
C           9.42860429604197   -6.38914731303877   -1.72071872201507
C           8.49802962217950   -7.20120268876739   -0.99940757281092
C           8.21174393453393   -8.56499044886118   -1.38505999723324
N           7.28871794235769   -9.11347662215909   -0.61458491590533
S           6.78539874039763   -8.03955883422808    0.48539717095926
N           7.74431781716711   -6.82303483937976    0.02177692887576
C           9.83719474164062   -5.08262543066085   -1.42332261192272
S          10.61575267094312   -4.14409716462813   -2.66018032813515
C          10.66888343916796   -2.68521840507208   -1.66979437222011
C          10.16875355758944   -2.96362541231335   -0.36306198098796
C           9.73542121135330   -4.30925301566286   -0.22067548835242
C           9.34944150962528   -4.75902004333396    1.03936456089776
C           9.28433015661434   -3.90240258713078    2.12613499301960
C           8.85347587960121   -4.41500166155896    3.42497860625485
C           7.97984338761744   -5.40080192551609    3.58479171207906
C           9.63440022043061   -2.54504703351879    1.96317103102146
C           9.52603153655251   -1.58094411656604    3.10455589289000
C          10.08055467672446   -2.10493103588240    0.73465057838336
C          11.18395516680863   -1.56877698944614   -2.28667172783187
C          11.42539751158269   -0.29358862689406   -1.76993446550890
C          11.88639153780990    0.74583387035378   -2.53684813141146
C          12.16780552324898    2.02479065176322   -2.03838039311971
C          12.58214046925204    3.14424135454503   -2.75989957407051
C          12.78455176213394    4.26902319610983   -1.98668040503212
C          12.54503189099258    4.06312539663355   -0.62871397752024
S          12.03985223883277    2.41785133098525   -0.34124228857799
C          12.68246064883071    4.97658185339443    0.42549008406049
C          13.03257672212268    6.32928715027718    0.35248630681200
C          13.09750118263570    6.94557504739025    1.57772842896466
C          12.81033977334588    6.10500165191973    2.66700908910749
S          12.43552642123241    4.49688034656720    2.07914268105391
C          12.83421010837472    6.48131563680862    3.99992360038219
C          12.60623843348335    5.70323955759877    5.13519312013503
C          12.28621505675654    4.33073362822224    5.24615926619860
C          12.18277609437349    4.00543247578149    6.60403019365591
C          11.90344663356052    2.80440332803841    7.24279699146843
C          11.88329741899233    2.79706618016450    8.63562416029361
C          11.64877149809575    1.77438605471509    9.55409328299068
C          11.75166580606443    2.30294849919353   10.87011331577777
C          12.04901402122254    3.65813729143331   10.77358509761132
C          12.14226936088337    4.01225387129253    9.40015302017067
C          12.41603571312875    5.20367584351719    8.77960790424853
C          12.44292746945420    5.21904564347941    7.36978755219943
C          12.69393919749443    6.23286007467986    6.46970126651248
C          11.58558918705638    1.58588286894063   12.11106158259360
C          11.31006887103833    0.28902552586472   12.22429943794534
H           2.84311070799250  -15.67690774096587    2.89195052092937
H           3.09954322076149  -13.88759484957795    3.23141621086163
H           4.13067063016538  -16.72779536909374    0.80471788466993
H           5.75073402236193  -16.01103631666064   -1.06567456597352
H           7.17477085783895  -14.85825270393141   -2.55439467086260
H           8.59638362412061  -13.10007708234123   -3.78143344914050
H           9.25273133191347  -10.79741402719333   -3.76052241067148
H           9.10468285431189   -5.79479223731038    1.18250368214806
H           9.27790697197862   -3.93075397098636    4.29438051475143
H           7.69270457329009   -5.74679590671879    4.56327235134691
H           7.50142570960123   -5.88032236019612    2.74725968969395
H           8.53003489234324   -1.61753044795720    3.54302941890879
H           9.72291455372523   -0.56541136071337    2.76957161606473
H          10.24637631641865   -1.82834558359783    3.88469724743444
H          10.36219211969400   -1.07037267818370    0.63469076444992
H          11.44547374343252   -1.71030473334676   -3.33026771764922
H          11.26235764707612   -0.09540009281940   -0.72179995500714
H          12.04354373550471    0.59581451471145   -3.59700676012323
H          12.72359769721803    3.11323184912699   -3.82571512524820
H          13.10526209980934    5.21708406257716   -2.37913799783911
H          13.22577844889110    6.82425254300723   -0.58190283584017
H          13.35105848148396    7.98179900497056    1.71767489006569
H          13.07885637283631    7.52267647354255    4.17612434127798
H          12.14772869300183    3.64233309957885    4.43506790900660
H          11.71159738521759    1.90353495665100    6.67752861998804
H          11.42742491425776    0.75313338306520    9.30541991513063
H          12.18862562745697    4.33282644901455   11.59860592355794
H          12.60981787773624    6.10688994124384    9.34119210842894
H          12.92392741131163    7.25652142756024    6.70490575256446
H          11.70433647117350    2.18668280629744   13.00452172201004
H          11.18496272464227   -0.34798857703809   11.36566153053048
H          11.20117469667691   -0.18201143596531   13.18587116057387
