110
 SCF done       -215.227614491376          0.000378372552
C          -3.54746603871394   -9.42484017772166   -8.23835006585486
C          -2.42406000560614   -8.69642485130740   -8.31641311906463
C          -2.00236256185312   -7.83888088317439   -9.38458895338303
C          -0.80810048810291   -7.23641073346039   -9.17686157944618
C          -0.19616802483872   -7.56490273878879   -7.93808400298014
S          -1.20034683849720   -8.67461508466738   -7.03608989147956
C           1.01633554932941   -7.11211522823159   -7.45562232942015
C           1.92734853414977   -6.23032126935676   -8.07269327975748
C           3.04457686556962   -5.98660525175101   -7.32708433052107
C           3.07348938563908   -6.65796940269898   -6.08642780028233
S           1.62845088284172   -7.62007458925670   -5.89201129076068
C           4.08957051814697   -6.57257006594196   -5.14948495096513
C           4.15362593571187   -7.20157168144538   -3.91771762232773
S           2.91268079078003   -8.25174907788056   -3.30885181159748
C           3.72860226212060   -8.51388133734997   -1.78019497172211
C           4.98088127070120   -7.84331520825010   -1.77583776627394
C           5.20715207576516   -7.09873414790374   -2.96537071952889
C           6.39217070993223   -6.37428467680338   -3.11440559243336
C           7.33898751134887   -6.40192771290123   -2.12027753559434
C           8.62133284180487   -5.63508659380658   -2.25717331841447
F           8.68017502852162   -4.93580010543877   -3.40497950113859
F           8.80190053631218   -4.73982858284636   -1.27252277326425
F           9.70629180637493   -6.42789881658899   -2.25550647203678
C           7.14789288524511   -7.17635458578649   -0.94643586057751
O           8.16615874969494   -7.14865807818862   -0.06234302352957
C           8.05654462556637   -7.88204823288884    1.13608757200872
C           5.97665384748152   -7.88920119761535   -0.79050653126663
C           3.05471956947194   -9.28227991955121   -0.83665426091212
C           3.34067231973440   -9.44473388342991    0.50262032668597
C           2.60597395209605  -10.25484607363179    1.36028195492579
S           1.27224531926110  -11.23708088970429    0.82320419847082
C           0.95653496180034  -11.86440884974820    2.42505971495503
C           1.87562946484531  -11.31660368051221    3.35404186576649
C           2.80150327045120  -10.42162288022746    2.75557762142092
C           3.77722996240987   -9.81318506619005    3.55101568509807
C           3.82539795596302  -10.08520067112006    4.89552341200751
C           4.86834161735526   -9.45077918619996    5.76727106613889
F           5.69639437536503   -8.64818514661972    5.07133942509366
F           4.34579551395478   -8.68469241750820    6.73878233692961
F           5.65940469608050  -10.35076459725879    6.37515371740808
C           2.89682381231011  -10.97164788703589    5.50590163968026
O           3.05215606277978  -11.14209148848914    6.83634211270943
C           2.16725609727249  -11.99752048568810    7.52086418346682
C           1.93298933153832  -11.57861717841697    4.72935549949101
C          -0.06038569706200  -12.77498457491261    2.67489002408384
C          -0.91785994353661  -13.28531414943104    1.72319638199286
C          -1.92487520154573  -14.20278385327301    1.99309414157170
S          -2.22497470049399  -14.81822780833874    3.59084954892748
C          -3.53872818336051  -15.85693532096847    3.07420087278852
C          -3.75506835908287  -15.69762560913043    1.67979864022489
C          -2.84494601200785  -14.78071847813754    1.08145525307309
C          -2.92042573630793  -14.51858115833575   -0.29067430384760
C          -3.87840304282202  -15.14021667393421   -1.05086018931848
C          -3.98311359125444  -14.87987426676334   -2.52448820067107
F          -3.05049854299752  -14.01574800492033   -2.96205934422123
F          -3.82878271616641  -15.99182551892740   -3.26327590023499
F          -5.16720331015789  -14.35062787998455   -2.87866375681675
C          -4.80918698213502  -16.03949116533438   -0.46569936093299
O          -5.71237706758544  -16.57344766570428   -1.31449313207017
C          -6.66334773876402  -17.48734667988093   -0.81699077423683
C          -4.73985140180634  -16.30264006443502    0.88593757381847
C          -4.12843390279326  -16.64287814263540    4.06064801355151
C          -5.09164157569464  -17.62165587364895    3.93361549374509
C          -5.60817368540900  -18.32914194003742    5.01134116600476
C          -6.57210259849641  -19.31293860766445    4.89250762260394
C          -7.14857952579224  -20.07776453655974    5.92576848226825
C          -8.08553267184663  -20.97818190088919    5.50637003486862
C          -8.30126057660494  -20.97165265013376    4.11186493491650
S          -7.26873175351459  -19.78053646527086    3.34906312942223
C          -9.17482336107082  -21.75092862452114    3.38172069876523
C         -10.05911677998700  -22.74606984461392    3.87308403309767
C         -10.80399153296151  -23.35220912693013    2.91880277851235
C         -10.56202560326999  -22.87713489849615    1.58881177142199
S          -9.32469511750278  -21.61102896613533    1.64180001577063
C         -11.14360113766517  -23.28267604447995    0.45033244006757
H          -4.26657366880952   -9.41235417425650   -9.03818157898372
H          -3.76337266619103  -10.04011907329115   -7.38445688305474
H          -2.61172445462487   -7.71232441021193  -10.26160757574167
H          -0.34002897409606   -6.56263029969927   -9.87221757966079
H           1.74224624445617   -5.80014290608256   -9.04028071458382
H           3.84900499706370   -5.34132262724787   -7.63364311967870
H           4.92096881483650   -5.93409895301427   -5.41573312282151
H           6.57353387163043   -5.79736216017045   -4.00687438461912
H           8.98650566812152   -7.70171935822403    1.67124650712840
H           7.95183439306524   -8.95355463434039    0.94113002177326
H           7.21680647652042   -7.53204510582279    1.74378898861972
H           5.84091439934831   -8.51002938640463    0.07565680051128
H           2.16136884319029   -9.77692448448473   -1.20177345699050
H           4.14560080449384   -8.88814812112192    0.95370951672269
H           4.49203397467098   -9.13171548962342    3.11863545313039
H           1.13420737881691  -11.64460714364743    7.44588807835853
H           2.48509366340831  -11.97021576498489    8.56122785125514
H           2.23423058822070  -13.02335409654171    7.14617613010652
H           1.21898866930617  -12.25565185702177    5.16657331715867
H          -0.18320122638699  -13.11081926009087    3.69609651982709
H          -0.80172228168838  -12.95759045103056    0.69947058155200
H          -2.23154977436034  -13.82967624362434   -0.75242235040984
H          -6.18336178095802  -18.37024024536531   -0.38451070644529
H          -7.25651782782939  -17.78472303856686   -1.67934181967992
H          -7.31462445787185  -17.02152835990224   -0.07146236172418
H          -5.45718953681312  -16.96420424056647    1.33327757370883
H          -3.75471872762708  -16.46548496770621    5.06329683136150
H          -5.47344062940173  -17.89396206941346    2.96272909643730
H          -5.25010811604934  -18.10620633888907    6.00800983357662
H          -6.85547302399371  -19.94272865338798    6.95230282567967
H          -8.62196744035178  -21.64025552451349    6.16191714849694
H         -10.11259423287430  -22.97944064481970    4.92175629178187
H         -11.52603340467301  -24.12790752331419    3.10190378479384
H         -11.89169676289276  -24.05538367027905    0.46268938746929
H         -10.88527868755948  -22.85517161539196   -0.50087795243087
