88
 SCF done       -167.563604477426          0.000522540210
C          10.03230155683723  -18.82431406700021    2.09802006855596
C           9.39050454485515  -17.64777394602337    2.04846531662328
C           8.01806989543933  -17.37972240286404    2.36428594859756
C           7.65687862461168  -16.08368118803795    2.21953182167180
C           8.70615145238123  -15.23113534149770    1.78159427268165
S          10.17952429896783  -16.13942240554785    1.55790597395964
C           8.63135760988386  -13.87009123921782    1.54987936850683
C           7.50613614043729  -13.02922489003724    1.69830926130591
C           7.74266102232600  -11.71955265204876    1.39938108631787
C           9.06533859421186  -11.44179236242114    0.99554113042713
S          10.00164566000224  -12.93527078809769    1.00978791463799
C           9.74613268820066  -10.30492901655396    0.60044753562367
C           9.43596578183707   -8.94316329406827    0.46293264561255
C           8.23134160560156   -8.23739690287478    0.75654252593975
C           8.09420328633357   -6.80333508550204    0.56480171900642
N           6.92868008713165   -6.21507399536220    0.85591253186375
C           5.92165966169222   -6.92674675099322    1.32530818471500
C           6.06323575132943   -8.32445836762594    1.52897074907415
N           7.19876249983656   -8.92606870905316    1.23671232060001
C           4.99919378349366   -9.10400404489989    2.04073335990165
N           4.13214781674560   -9.73125169651756    2.45179517255289
C           4.70232199784370   -6.27127614486022    1.61954944401101
N           3.70851202417066   -5.75490206946799    1.86383908381091
C           9.15925912213843   -5.99276290088051    0.08114734423068
C          10.35619714448824   -6.70089077127262   -0.20921767287535
C          10.49172976009069   -8.11588238847927   -0.02890352637393
N          11.70346257440772   -8.54128621309247   -0.37073932315034
S          12.59081249025892   -7.29524915973222   -0.86948370146262
N          11.47101781029609   -6.14806358109943   -0.67350754129457
C           9.12610603641300   -4.59782718937631   -0.11147826008786
S          10.57197779833296   -3.77548095370561   -0.66819950544456
C           9.84406161500253   -2.18210150800299   -0.64239980656051
C           8.50887824879718   -2.29120104051596   -0.22826556964989
C           8.12400062330840   -3.62982958447863    0.06373065043877
N           6.83015845343794   -3.57054148467416    0.44173888613066
N           6.36645789616078   -2.32083007573600    0.41589860708835
C           7.34023164241212   -1.53451115261731    0.02136362940777
C          10.62079848428851   -1.07309243937038   -0.99074420531368
C          10.17915193601789    0.22264103777471   -0.98369516607915
C          10.97278600159089    1.34055128286467   -1.29809841302657
S          10.29022770953645    2.93957688198660   -1.21487379210931
C          11.80338697295670    3.67438264262200   -1.66889410139140
C          12.77215108400871    2.69364068993517   -1.87836730497221
C          12.31493983398383    1.40744126851212   -1.67527317798650
C          11.91573827427845    5.07456990985990   -1.75900395754769
C          13.06836602578265    5.74271721419185   -2.06237533990693
C          13.12264377643492    7.14681028771204   -2.10196907753662
C          14.25637859787164    7.87637509758379   -2.35712667116317
C          14.37140135016465    9.31902451264169   -2.37676808509280
C          13.35607295394705   10.23390943274070   -2.24036306285443
C          13.54127538923683   11.63113966855819   -2.26973192894666
N          13.61802515271784   12.77717386961497   -2.28067013655039
C          11.99082003119153    9.92997034841118   -2.06698987077555
N          10.86100690833102    9.77186045815001   -1.92786498011089
C          15.77756186072039    9.65150113341721   -2.58864173119141
C          16.51153718720412    8.44143194051816   -2.74288561593495
C          15.59507804553486    7.29424380357502   -2.61711307405949
O          15.89636109195024    6.11974152116996   -2.70618460628259
C          17.85857489125961    8.43555594363226   -2.96015446586079
C          18.55126039604478    9.66539915430722   -3.02760370330905
C          17.82651046286301   10.88074409045010   -2.86615307260152
C          16.42929502665048   10.85443936890824   -2.64807795436834
C          18.52770898958067   12.10200625835430   -2.92684219818245
C          19.87954898002577   12.12379893116577   -3.13810189696269
C          20.59178829411930   10.92627543236981   -3.29950462927852
C          19.94153464653193    9.72319603359759   -3.24557996423034
H           9.51740542959884  -19.71789454865878    2.40394680360853
H          11.07173374435878  -18.91273765192323    1.84020190126500
H           7.36305513497494  -18.16969091361613    2.68543280697619
H           6.66930440053266  -15.70444947751437    2.41183252084181
H           6.55068940415804  -13.40171619181199    2.02094216120947
H           7.00202970399307  -10.94667610108523    1.45919112979589
H          10.77832685004731  -10.49638698563685    0.32321621827111
H           6.25548087580628   -4.35194545616482    0.72475187594378
H           7.17121886833392   -0.48114852500273   -0.06919729944662
H          11.64362864723542   -1.28487067468945   -1.26894346490412
H           9.15494715124454    0.42187935294365   -0.70647321408794
H          13.77925884926898    2.93064056828586   -2.16975511640781
H          12.92894007362013    0.53296757779506   -1.79120270734648
H          11.01804844022458    5.64682684657106   -1.55786498947244
H          13.97637159152846    5.19757504894013   -2.26665198990191
H          12.19990140133368    7.67403707464583   -1.89607883949456
H          18.39074564702100    7.50291481718812   -3.07631487660475
H          15.91152495051933   11.79284118517059   -2.52977520528047
H          17.97464264087783   13.02156161370104   -2.80262595087913
H          20.40765059744721   13.06462670320053   -3.18202180368022
H          21.65814245720832   10.96154154826952   -3.46623659722630
H          20.48479518598952    8.79747377829659   -3.36857282586035
