81
 SCF done       -156.682153297243          0.000246351452
C          10.27344381801407    1.22188568957351    4.00943753812442
C           9.14718713060405    1.09782320257696    3.29425446721961
C           8.40084810151477    2.13610614823055    2.64263898577995
C           7.29697304694073    1.70596433145294    1.99323000256054
C           7.07779440162273    0.30174814349349    2.07681696874383
S           8.34375936707558   -0.45624416578670    3.01816239234057
C           6.03854348603920   -0.41250279515033    1.52752885057552
C           4.95535296715333    0.07587638682760    0.75747746664885
C           4.07668892276890   -0.88608878380138    0.37156401757113
C           4.40423355435273   -2.19638068022825    0.80980139298303
S           5.89627972266551   -2.14895877723967    1.72973662326138
C           3.64541114903483   -3.31328651567315    0.56232792356644
C           3.88262119044941   -4.63561505015697    0.96476013819893
S           2.65548931379248   -5.84572013046265    0.57637702483095
C           4.95468477200330   -5.20056028276328    1.65559430548112
C           4.78627305422455   -6.55940838084587    1.86568080765688
C           5.51923961760686   -7.65048620732543    2.50164115968663
S           6.97290250129838   -7.55632301326487    3.24085732757816
C           3.57811853394612   -7.06472976823211    1.34391206227939
C           3.50618659014784   -8.44178322183603    1.63501389737480
S           2.42977931692493   -9.74797874895228    1.40990273354674
C           4.67563621183965   -8.81732730360053    2.33604480961678
C           4.69085087448901  -10.16494921951587    2.68361881355227
C           3.54309814584126  -10.81295953780345    2.25985732688259
C           3.21143737608605  -12.16979973166813    2.46811445386459
O           2.01813829023484  -12.66239515720758    2.03758857625286
C           3.90563727133724  -13.18703129307606    3.09366515485489
C           5.14577014365300  -13.52402605957809    3.78503533925715
O           6.11305187620375  -12.85698212781956    4.05605723105662
N           4.98831149564709  -14.87309835631893    4.09986180523923
C           3.78404490334561  -15.44173780993820    3.69245719770905
O           3.46455755177601  -16.59113238654243    3.87867498341423
C           3.08287798004829  -14.34197368606636    3.03594633838587
C           1.92044811946070  -13.98122184582054    2.37721007070821
C           0.74743085712739  -14.69867006592924    2.04389292894153
C           0.58374843929907  -16.00476804560979    2.38103147691386
C          -0.56153897509606  -16.78370993589793    2.10077352587527
S          -0.58483452397200  -18.45779988547502    2.66030516959750
C          -1.73257332199771  -16.44891489182235    1.43693401893598
C          -2.63019929965915  -17.50916764623352    1.37704096652886
C          -3.95213080928399  -17.77312101675617    0.84632657831194
S          -4.92890100213927  -16.74467398292263    0.03357868581768
C          -2.14378351013380  -18.67864642883356    2.00626663969437
C          -3.12268274356153  -19.68665200366623    1.89354791915258
S          -3.36497410409262  -21.31822534333975    2.34273712531937
C          -4.22911505504594  -19.16369711065014    1.19261883279616
C          -5.25688965557972  -20.07664394301502    1.02023354204799
C          -4.96167641582022  -21.31717549471123    1.58578893654967
C          -5.70618033442673  -22.50431856310628    1.63700672714252
C          -6.94567438635855  -22.76131686010093    1.10598077600734
C          -7.62133610878872  -24.00616119802005    1.20464490484289
C          -8.83488920266466  -24.04134207009123    0.59442930971199
C          -9.19927580346328  -22.82293949084506   -0.02802685453086
S          -7.93335250813120  -21.63045609820493    0.20009802034681
C         -10.34981893799314  -22.54024448427340   -0.72665762507992
C         -11.44144978150619  -23.41833017419045   -0.97926168040608
C         -12.44267310354338  -22.86807894094939   -1.70047814963621
C         -12.21961670845084  -21.50145556946569   -2.07732149193070
S         -10.65075508216419  -20.97364490555081   -1.44721641393408
C         -13.02771665164142  -20.70397399950791   -2.78893235482675
H          10.72899744474983    2.18571830014301    4.15343885293652
H          10.75479682067054    0.37244316793988    4.45812909369646
H           8.72700618175878    3.15977630159639    2.69236864132219
H           6.62251509612131    2.34649366886026    1.45319716243551
H           4.85526297795871    1.11832249060330    0.51456326948860
H           3.19363375135313   -0.70251080471395   -0.21496162308840
H           2.73729549849247   -3.14979105510404   -0.00442442163609
H           5.81241780107390   -4.64280919680241    1.98142821949785
H           5.47845643007231  -10.66642770172335    3.21800272604414
H           5.69528965119968  -15.39951498145981    4.59266013112522
H          -0.01483487217736  -14.14682618278940    1.51520637828423
H           1.38265763420894  -16.50416485667689    2.91376089395243
H          -1.91859487978637  -15.47765159971650    1.01731870700637
H          -6.17826532174902  -19.85918177087998    0.51327428643268
H          -5.23847556479080  -23.32920516344814    2.15998001361730
H          -7.17922154944271  -24.83664281817784    1.72653115415342
H          -9.47526113287860  -24.90456759673441    0.57212492474162
H         -11.44192432715378  -24.42995413304465   -0.61411673311496
H         -13.34587692352583  -23.37601415540137   -1.98852266303627
H         -13.97317228674830  -21.06506713082609   -3.15351114067624
H         -12.76180449847732  -19.68827949791714   -3.01737757425473
