87
 SCF done       -157.207019316863          0.000264188927
C          -6.27915332958918  -12.06577601316660    2.07956166806594
C          -5.02479698773076  -12.48593705906509    1.87198778390937
C          -4.50778843195372  -13.81760229548911    2.01662818793960
C          -3.19313324511113  -13.94367758297555    1.73655669925202
C          -2.55487621276221  -12.73235981722225    1.34645588833029
S          -3.71637438503230  -11.41054725040251    1.35473182875392
C          -1.24228805967628  -12.55260337967039    1.00392113052549
C          -0.20249370878202  -13.51874731062812    0.95115483762025
C           0.99895507066732  -13.02789881885253    0.56755513396394
C           1.01656294854207  -11.62758941151824    0.28659935312297
S          -0.61451406068180  -10.97847297587237    0.54189082297890
C           2.13644217548044  -10.95333998531451   -0.07966453506367
N           2.30236864092247   -9.64102234948329   -0.41476961568715
C           3.55800607390742   -9.06202094105604   -0.45076881978088
C           4.70769997852452   -9.55361984590527    0.10154650888534
S           6.04513487232197   -8.50237877427756   -0.14062593261311
C           5.06989296707349   -7.37681937280262   -0.98798433137153
C           3.77089935165176   -7.78972527742138   -1.08295020924416
N           2.73470540390424   -7.12967761689702   -1.73630608326001
C           1.53775820219639   -7.91604273210017   -1.95187391124484
C           1.21324830649258   -8.73796523384537   -0.70467540764611
C           2.88193410546378   -5.86933668801534   -2.18766876389813
C           2.02833039354774   -5.20569598765454   -3.01152637773829
C           2.13866015114891   -3.85879885808431   -3.44074160154754
S           0.91668493619174   -3.36546182438460   -4.59959999173338
C           1.44960378754548   -1.69366387222935   -4.59936480177271
C           2.52459419349788   -1.55443327171310   -3.74928704450397
C           2.92266978448506   -2.76718482902198   -3.09781258742956
N           3.88076624155206   -2.72854895301778   -2.04577657086804
O           4.65388489266894   -3.66309990286870   -1.92595636443450
O           3.84012336853541   -1.76837976311542   -1.30598682382512
N           3.21578736123073   -0.31523207449811   -3.58147112824090
O           4.41902338110159   -0.36300114964396   -3.44306965971266
O           2.55664927660174    0.70519380856904   -3.64910067202958
N           0.92990681715033   -0.76452972330323   -5.44647297619384
C          -0.42924805573482   -0.64564568802773   -5.71362071699216
C          -1.43909218040870   -1.44172575675500   -5.26259360277218
S          -2.97532444818458   -0.92207173675700   -5.82534260942410
C          -2.27015590815006    0.40067439659439   -6.66256843156942
C          -0.90998756867461    0.44055484978559   -6.52528943085247
N          -0.05572348245334    1.40390156899046   -7.02650265788229
C           1.27662547489317    1.41634584264829   -6.46259171879620
C           1.77999253152840   -0.01902183126184   -6.36143836452897
C          -0.47246717387130    2.32279313762919   -7.94543171801546
C           0.18226520070654    3.43993318491224   -8.34345819489833
C          -0.33939792151748    4.29175955534605   -9.34279987850142
C           0.26751147328225    5.42719190293539   -9.79626748261816
C          -0.22319729156468    6.31842040538784  -10.78751709373875
C           0.59010763596793    7.37181150673719  -11.05128116453003
C           1.78573380270950    7.38780222544662  -10.28693757444173
S           1.82954664442242    6.00230304137508   -9.21142562092952
C           2.79900368422636    8.31178636953753  -10.33262100622960
C           2.87871147821957    9.46791804558937  -11.15776371312657
C           4.00332940175658   10.19803082709144  -10.99168140777683
C           4.91310958142507    9.67466146189227  -10.01317442505347
S           4.23216354711349    8.19276667491618   -9.32316577410609
C           6.09722760192831   10.17950298229826   -9.64122748620874
H          -7.04286533643844  -12.75471439787923    2.39442970020083
H          -6.56276814196402  -11.03865419388452    1.94151011330929
H          -5.15131536855379  -14.62227253576507    2.32586397025367
H          -2.64633390377427  -14.86854562156410    1.79396381648002
H          -0.38193136915687  -14.54827284064882    1.20343391082006
H           1.89360069561120  -13.61840328818104    0.47422580145754
H           3.05142255540265  -11.52829448663950   -0.12418377405729
H           4.84876531322627  -10.45772688723621    0.65595819393336
H           5.52030671257188   -6.48210284176898   -1.36643861109209
H           1.68164827244052   -8.58721846681105   -2.80797162105092
H           0.70046162351877   -7.25068673985260   -2.15863764287927
H           0.30434109531207   -9.30898059959076   -0.88372013499261
H           1.04348779149308   -8.06421733468157    0.14452714737109
H           3.77789732882716   -5.37698200902869   -1.84395634356360
H           1.17777296541794   -5.71677876693878   -3.44041058293921
H          -1.39056999205049   -2.29522016900934   -4.62027658073521
H          -2.91209234580473    1.08011667481015   -7.18255263635828
H           1.27999826148681    1.86366471219459   -5.46128000181448
H           1.93830455940984    1.98627825031661   -7.11348324412864
H           2.81351906209098   -0.03117764583871   -6.02342388450451
H           1.73531398565135   -0.49366528264270   -7.35240599961021
H          -1.42671899396919    2.09182133690337   -8.39590735150689
H           1.12409926547814    3.73408096243079   -7.90476509252009
H          -1.29309727592931    4.03046657105828   -9.78323573836948
H          -1.16878142929677    6.14296018227812  -11.27070810494788
H           0.37158279738516    8.13957999302240  -11.77186363043154
H           2.09229907223715    9.71632876176427  -11.84875785131408
H           4.23581669937001   11.10137869663486  -11.52763391709890
H           6.47287811943916   11.08312691781855  -10.08790303181635
H           6.70461969190663    9.70498521529444   -8.89280243836534
