82
 SCF done       -142.538410094636          0.000630437321
C          -9.57327780108045  -25.14902079469548   -5.87123301234257
C          -9.85204934226587  -24.42915468395786   -4.77638700417451
C         -11.07399616668929  -24.41099630125888   -4.02375869042321
C         -11.06307000416122  -23.58037304713777   -2.95843372084721
C          -9.84189978310909  -22.87281191170907   -2.77606891360321
S          -8.69547902950765  -23.31446674229075   -4.02929420344178
C          -9.53946297486934  -21.96361608686933   -1.79334902283100
C         -10.36542751195382  -21.51841131061619   -0.72929611501791
C          -9.77845495360184  -20.59873127242073    0.07767411411049
C          -8.45082420389897  -20.25076467644386   -0.29262038475261
S          -7.97833418413395  -21.16334490142892   -1.71766795069689
C          -7.65345482278786  -19.33827871708529    0.33837600648026
C          -6.34369362080517  -18.97744917150300   -0.03259152608754
S          -5.52415538143561  -17.69462998600468    0.89045763967715
C          -4.03693005859351  -17.75451648130464   -0.07286209716519
C          -4.23236759297880  -18.73521954908444   -1.01578141977939
C          -5.47165182571524  -19.40345149509898   -0.99873366796276
C          -4.98286560427162  -20.23138970746018   -2.17050397088577
N          -3.77247822008975  -19.37928320070070   -2.16735196098620
C          -2.93770844526854  -16.89192954663631    0.14152604699849
C          -2.87466338131568  -15.92812298513709    1.08267787206930
C          -1.75289116157597  -15.02993027541546    1.20268067038780
N          -0.71877280562254  -15.18949965624805    0.36407906266336
C           0.26998452017474  -14.32072802362384    0.46585623514883
C           0.26108052780771  -13.27992679623882    1.37609965573641
C          -0.85117557193145  -13.19793547506859    2.23122898664156
N          -1.84359214239542  -14.08507402696596    2.13384468293345
C          -0.95336813672372  -12.14882662787043    3.21209333549788
C          -1.94117015540540  -12.10732724505901    4.13941850172066
C          -2.15239731775928  -11.11028322624578    5.12003449336521
C          -1.58339433892797   -9.86752887207658    5.21503231208638
C          -1.87017860917374   -8.91020567808374    6.22765144950152
C          -1.24622560811392   -7.71236061714157    6.07649941572166
C          -0.42347518012619   -7.63720963430558    4.92898893375299
S          -0.45285088771127   -9.16714206977184    4.06885875249704
C           0.31032631778551   -6.56958156907426    4.46641646291777
C           0.43815378506906   -5.26999898408672    5.00857941880181
C           1.22346830897131   -4.43727812596299    4.27582235499595
C           1.76485872001729   -5.00701381176962    3.09089256719390
S           1.25897474763188   -6.69449161817702    2.99556304036277
C           2.59107168051446   -4.34965796201755    2.22152659338685
C           3.18519303527138   -4.74690861323327    1.00219096985367
S           4.64112603674398   -3.87863881524563    0.52987015460709
C           4.83964246505589   -4.83880559154232   -0.87118311255784
C           3.84326311888433   -5.75923422720957   -1.00933352795154
C           2.88109128414004   -5.70849391732853    0.04472697880378
N           1.73386528033306   -6.45281675752138   -0.04451350774959
C           1.82048618192920   -7.63586772110581   -0.86272416257306
C           2.36596053096699   -7.23395802261108   -2.23591313409446
N           3.68804453275725   -6.64711689160994   -2.09157556870451
C           4.76052998744851   -6.95620909889104   -2.89607316537863
O           5.89611553248622   -6.68384673717844   -2.62513538024842
O           4.46495425104177   -7.59681916658673   -4.04596914481068
H         -10.30649317810839  -25.81422968037586   -6.29185406648190
H          -8.61907211824010  -25.08717779693508   -6.36118671541397
H         -11.90731792197633  -25.02396287258379   -4.31849206542199
H         -11.89292979922286  -23.44329384167997   -2.28782271349856
H         -11.36540902738036  -21.89045847036690   -0.59596124849397
H         -10.25034859129611  -20.14637047245251    0.93221082524980
H          -8.06544090917606  -18.82976771218935    1.19922239030565
H          -5.55306431465398  -20.13869363634603   -3.09364815626011
H          -4.80810658772986  -21.28246759853437   -1.93940579043749
H          -2.84253969554439  -19.76411214234599   -2.24418320419151
H          -2.09814121542761  -17.01545114704916   -0.53028468189944
H          -3.68860432753325  -15.76629418966881    1.77436778597901
H           1.09807010599261  -14.46956685131987   -0.21808391454055
H           1.06816325380960  -12.56771784272916    1.43865367352673
H          -0.17226828075181  -11.40378775477006    3.18355017790262
H          -2.63601447599988  -12.93691304684741    4.13972214571714
H          -2.88686750528549  -11.33837153859949    5.88275876267647
H          -2.54146743210142   -9.14627883836304    7.03482557598090
H          -1.36076439379636   -6.87906235179650    6.74665929876458
H          -0.05853338245435   -4.98941998615167    5.91995125570526
H           1.42785497502545   -3.41347053434701    4.53585523237033
H           2.90516074384881   -3.36779210014211    2.55787422974557
H           5.68486519119827   -4.68517481907626   -1.50841115571851
H           1.17335192112867   -6.52984110817715    0.79109573473291
H           2.48219584970377   -8.39555838499913   -0.42034337260228
H           0.82187198932956   -8.06170443543783   -0.97452267418635
H           1.67984797234144   -6.50803155066291   -2.69171341911230
H           2.41542628816880   -8.13328790678663   -2.85371388938593
H           3.53432084503553   -7.55063296369014   -4.29433236363740
