78
 SCF done       -145.183996017992          0.000929427978
C          16.17800033635162  -11.58318723099906   -2.05600021770642
C          15.47419280506425  -10.51579899556419   -2.46312161665037
C          15.97366839851787   -9.27935450804612   -2.98558261413678
C          15.01245887807651   -8.38087891062847   -3.30745282505210
C          13.68836681279375   -8.82902267717216   -3.06842384079169
S          13.70493618918339  -10.45387940231873   -2.41696976056188
C          12.51387759891042   -8.13411143327723   -3.28242145038743
C          12.35666484369136   -6.82381543071037   -3.78000307593974
C          11.05588574454262   -6.41542202946237   -3.85117116249167
C          10.12102476877809   -7.37717096570546   -3.41606774552586
S          10.94918758890048   -8.83682861641017   -2.91893649109994
C           8.75056614168954   -7.20865591567648   -3.35915308229689
C           7.81013127199429   -8.12995994734638   -2.92582745539714
S           8.14247920215232   -9.76763657017918   -2.38785996498427
C           6.44709884844818  -10.15513585263412   -2.02930551087934
C           5.65653941969993   -9.01551571009670   -2.33763080328708
C           6.42702878701422   -7.93772641105584   -2.82239526367199
O           5.67033969899890   -6.86575963060724   -3.10359518942358
C           4.38773418771636   -7.23855468441926   -2.80437449779667
C           3.32308074078911   -6.34612089536338   -2.96231463699690
N           2.41360839583286   -5.65101570647105   -3.06494332448767
C           4.32613051706092   -8.53353503284708   -2.33969921129624
C           6.21530813827441  -11.42132129308184   -1.53502603344893
C           5.03356011519240  -12.02676603257909   -1.11050041862452
C           4.90181461923261  -13.33106338713492   -0.61273023576458
C           3.61876274620203  -13.67341137682543   -0.23974225595726
C           2.69380568529840  -12.64757973286040   -0.43121074540630
S           3.48170232599047  -11.24250102407668   -1.09643026982725
C           1.31839067443127  -12.55727656436150   -0.18572374120594
C           0.40183193288137  -13.46447751166554    0.34786307596687
C          -0.87810835223802  -12.96190761511750    0.43742418326311
C          -1.01303557720523  -11.64351597380023   -0.02142688935522
S           0.52828209333003  -11.05219577614201   -0.58165238614531
C          -2.15458405141308  -10.84997653825762   -0.04678736953300
C          -2.21646093808390   -9.54564630044231   -0.50129493021160
S          -0.86641903946836   -8.63632029775389   -1.16787296666622
C          -1.79425375607610   -7.15274225653410   -1.43702581932454
C          -3.12759718686657   -7.38282928342478   -1.01859073762683
C          -3.32669749956907   -8.68585594500960   -0.52034884219932
O          -4.59470254863496   -8.88006970775680   -0.13369484877639
C          -5.23846366537406   -7.69831586002146   -0.37999869484035
C          -6.60149080430387   -7.57510237494600   -0.07844316477676
N          -7.71696024434958   -7.45053104288660    0.16052147786809
C          -4.39290504990254   -6.75589139447428   -0.91876362434502
C          -1.08116519776057   -6.09957732221481   -1.97415294540287
C          -1.44064457634419   -4.79518750858460   -2.27687343505002
C          -0.54659779860144   -3.85257268632852   -2.82446339581608
C          -1.08879273476144   -2.61511100051082   -3.02922168994673
C          -2.44271085419581   -2.51846944632341   -2.65072422680709
S          -3.00438684305916   -4.05708916041105   -2.03178848445268
C          -3.27662912948078   -1.41780940225954   -2.71588596604254
C          -2.95341664685887   -0.11923270031603   -3.18493644021240
C          -3.97567120776990    0.76756741257991   -3.12199113708360
C          -5.19283825463606    0.22846590549166   -2.59360276454174
S          -4.94380722722873   -1.47694180486872   -2.18763530550438
C          -6.36291152100525    0.85833947326247   -2.40792604965615
H          17.25256304274434  -11.58112833292235   -2.09992372170885
H          15.69722510805523  -12.46648417753895   -1.67789543315401
H          17.03068870785441   -9.11564516986744   -3.09547310698674
H          15.20866264349792   -7.40310370772884   -3.71026754192238
H          13.19595171610183   -6.21649085969393   -4.06691024387734
H          10.74171630395031   -5.44767360143951   -4.20107660883157
H           8.35856346622468   -6.25004290824871   -3.67487421334992
H           3.42134937157296   -9.02354168420923   -2.05350595806261
H           7.09789220739545  -12.04451326594190   -1.44968222010893
H           5.74601507032853  -13.99333728643132   -0.53496537080326
H           3.34260429550291  -14.63189225387037    0.16205008177414
H           0.68413726758989  -14.45483180529736    0.65805191210031
H          -1.71565340512822  -13.51409866383644    0.82567088219211
H          -3.07459074075597  -11.27765105724127    0.32828337084929
H          -4.67311386763694   -5.76179030944322   -1.19425225149278
H          -0.04203599099641   -6.32369055153182   -2.19170124740736
H           0.47085519882112   -4.12152668123167   -3.04654954506656
H          -0.54941464706658   -1.77954646885696   -3.43676776625543
H          -1.97051039750038    0.11422061840842   -3.55386209199157
H          -3.91847412800732    1.79594031291854   -3.43118308246171
H          -6.47344074335283    1.89672027763685   -2.66549886290679
H          -7.21807928120026    0.35324966340082   -1.99856016226225
