110
 SCF done       -196.273276630395          0.000573603009
C          11.18994896213274   -8.89754190020737  -10.02923084534588
C          10.15679245388904   -8.96587091338619   -9.17351329622422
C           8.90073975691908   -9.62722749613466   -9.36082778236299
C           8.05495599164695   -9.51387605723598   -8.30724238942287
C           8.57624891373699   -8.76210520126899   -7.22379077202772
S          10.18568621996426   -8.19842104875820   -7.57769194542686
C           7.94912518329689   -8.46648837777905   -6.02042529395175
C           6.66216955377666   -8.84320862547505   -5.59954897849166
C           6.35001487364369   -8.36594683374244   -4.35724367137610
C           7.36508612962931   -7.59763233264901   -3.74634262910970
S           8.75407624111597   -7.50278383258365   -4.79972164176164
C           7.18928577106555   -7.01570355791039   -2.49822162393999
C           8.00366798783717   -6.22169682360941   -1.69653951193767
C           9.33475650201696   -5.80156896494523   -1.97895287659838
C          10.08370134467319   -4.98696734900156   -1.05909747195052
N          11.30908864777931   -4.58833925878785   -1.37585287620843
C          11.85023949301874   -4.94498142477510   -2.53364483907048
C          11.12393206166361   -5.76526109430686   -3.42706671910012
N           9.89699924933341   -6.16575587400294   -3.12685103002941
C          11.69929937761285   -6.16416445099417   -4.65714447118924
N          12.20510983197199   -6.46198837883841   -5.64163470521710
C          13.15295278412123   -4.49802137157440   -2.85302385838168
N          14.20777916264555   -4.15488140886601   -3.14182241499819
C           9.58384133208165   -4.58248785666203    0.21829764336275
C           8.21150256213630   -4.90957058657956    0.45352762077990
C           7.45902910652124   -5.71168287480203   -0.47257531273495
N           6.19877263273329   -5.86095694913013   -0.09403607266108
S           5.95551425562786   -5.04330381527366    1.28344795383754
N           7.46110421960397   -4.47514225721013    1.45186137020715
C          10.40848034779336   -3.85474106494277    1.07229411705105
S          11.90249062339398   -3.17398864724818    0.44323621280555
C          12.14945768900643   -2.32129741280486    1.94302292587631
C          13.03547547272538   -1.49080338035641    2.53524789658574
C          12.64152443215380   -1.22477765715995    3.90913953264735
C          13.65888113662816   -0.41961113707725    4.25960063783501
S          14.48490715813064   -0.48439151118116    2.63543096301142
C          11.38035779826601   -1.95943430079370    4.23935291914773
C          11.12695672273286   -2.63933980137117    2.91444048007137
C          10.19109548563171   -3.51246157477855    2.44844761920817
C           9.19557164283471   -4.13815150466796    3.32936954951219
C           9.24904366847018   -5.51943179236940    3.53088011600770
C           8.38022649921074   -6.10038549000418    4.42646727970040
C           7.41100542340203   -5.31506988552890    5.07476932155382
C           7.36799932563544   -3.94173910083395    4.88849420666853
C           8.28570014975706   -3.35742489644703    4.03778361856132
C           6.56141771525567   -6.18542030484251    5.85816184600531
C           7.02090511629071   -7.50625551715092    5.71491248544118
C           8.27906877034866   -7.54187806996135    4.87241738865505
C           8.18946183173207   -8.53405117598223    3.70653299833973
C           6.97677746206812   -8.27698778986941    2.82119689467904
C           9.43910809416596   -7.90065973610092    5.83507880786752
C          10.83980143028885   -7.81850074847574    5.24357979372193
C           6.37134375184487   -8.53909051030685    6.34161477144792
C           5.23178529044278   -8.27756940883619    7.12525128916192
C           4.78848796231665   -6.95110226067785    7.25741730294694
C           5.44253637069280   -5.91053617666702    6.63384533915749
C           4.57021903671648   -9.38137511541097    7.76212047118834
C           3.47396461095570   -9.32005070929350    8.55942465892946
C           2.91203159282327  -10.48383446443226    9.13201309404565
C           1.80818605329867  -10.50513877049045    9.93803239215070
C           1.19611321507284  -11.67365683151814   10.54259276387091
C           1.61794298661748  -12.97522523812290   10.43901742460038
C           0.97442134434899  -14.06922954498718   11.05411576212479
N           0.50328715377340  -15.00402381631694   11.52654013530221
C           2.74252429950877  -13.42365654808540    9.71645288407526
N           3.63825350896437  -13.87644052150494    9.15706988036963
C           0.03322585971534  -11.22408093620008   11.29963323183135
C          -0.07349594957183   -9.81604499926636   11.18003922155736
C           1.02296487069906   -9.31057864053481   10.33427402423480
O           1.22212313850495   -8.15007630927699   10.03563860000228
C          -1.07378291108527   -9.09450579139210   11.78525016271039
C          -2.01642648165774   -9.79351733032123   12.54495367133867
C          -1.90305591701881  -11.19959982049244   12.65849193971119
C          -0.89098499912639  -11.92983882536776   12.04724808756421
S          -3.17476817198025  -11.85496411921767   13.64207708372717
C          -3.83254154545038  -10.27411637963699   13.88723115694692
C          -3.13871596320874   -9.29596465798340   13.26546329641885
H          11.14021196917313   -9.37416804558268  -10.99251323132883
H          12.09096013064737   -8.36791158633969   -9.77956370275408
H           8.68377488066178  -10.15645138794916  -10.27146612791662
H           7.07013620855514   -9.94474526776923   -8.27109421551988
H           6.00024378647243   -9.44137616696515   -6.20001771971905
H           5.41090819667718   -8.54283510851081   -3.86220108160962
H           6.21566428224173   -7.20119769867443   -2.05672415805685
H          13.97741921733394    0.11173096965466    5.13213943495660
H          10.56508995629828   -1.28839184297102    4.51649203790621
H          11.50679128968027   -2.68346432642397    5.04756222191436
H           9.96504347393899   -6.10731130058254    2.97525183788924
H           6.63119162191495   -3.33945197165330    5.39814215406634
H           8.26758698815773   -2.29115875684037    3.87146240200201
H           8.14099038892673   -9.54856085496598    4.10783362028426
H           9.09357487985757   -8.45658513796527    3.10104728529705
H           6.05376954152256   -8.37482999269531    3.38818154406535
H           6.95245564770953   -8.98463332469853    1.99568602112052
H           7.01799393315590   -7.27137362498945    2.41072165494177
H           9.26471222283408   -8.91500526683065    6.20087145829946
H           9.38129050152014   -7.22647726498106    6.69400355743663
H          11.56580026122004   -8.11449119891579    5.99785899432723
H          11.07155784383788   -6.80343810686794    4.93213875953034
H          10.95138116213539   -8.48377523698827    4.39162693130617
H           6.71839472802078   -9.55747285774177    6.23871706779759
H           3.91762703881273   -6.74067386546748    7.85742663836672
H           5.08765783559867   -4.89708184843318    6.74543318489656
H           5.00744965227633  -10.35686670213186    7.57676586158373
H           2.99478006665489   -8.38013002388267    8.78205586028199
H           3.40548775946770  -11.41940888201225    8.90113022851441
H          -1.12606343670948   -8.02241539926650   11.67419969696319
H          -0.85020707886074  -12.99960134858912   12.16531492205490
H          -4.71289056425407  -10.17413473196034   14.49201567104165
H          -3.39946808999622   -8.25376469781087   13.30570337481760
