90
 SCF done       -178.052341731435          0.000926192092
C          13.82010968450312  -17.72827001673134   -9.31176452519400
C          13.84550007893419  -16.75919226051154   -8.38243589596187
C          14.78750137080446  -16.58356466312041   -7.31936026115775
C          14.54748598884406  -15.50170340852150   -6.53776577469982
C          13.40979389459270  -14.74813388335053   -6.91991108835422
S          12.64355634475119  -15.46016546191957   -8.31584649601302
C          12.92606219915226  -13.59801061604635   -6.31099642567208
C          13.45443686884722  -12.93593947314587   -5.18607942635002
C          12.75484961243879  -11.81932103610575   -4.81557244433004
C          11.64336843420152  -11.53960776595163   -5.62653422054467
S          11.51113040699505  -12.75975189323714   -6.88733630742843
C          10.69337986439081  -10.52572200659802   -5.63598367204722
C          10.47321026630635   -9.40490925321370   -4.83907576492437
C           9.39059050526584   -8.53571144113457   -5.23357172639501
C           9.08094686736356   -7.31544778796605   -4.55337478844321
N           8.07998789367685   -6.54569297833793   -4.97530157580346
C           7.36833465776541   -6.92034054108204   -6.02485668496720
C           7.66768642084718   -8.13251827899380   -6.69732894031394
N           8.66110188297100   -8.89974364679814   -6.29216741172849
C           6.90366932541067   -8.53955564641767   -7.81929990964782
N           6.26734720497897   -8.84062750197466   -8.72319445255637
C           6.30670490784293   -6.09282433231989   -6.46210529476133
N           5.44404037509490   -5.43998908235492   -6.83984268310188
C           9.82872720372185   -6.86321396680810   -3.40553258547097
C          10.85320699041467   -7.75783704280145   -2.97775925886587
C          11.17250391884494   -8.98520657912622   -3.66584466774372
N          12.15462785723260   -9.63317724178504   -3.05626842434870
S          12.64408894408359   -8.80967735247295   -1.75457520543919
N          11.61272470797631   -7.57440475616099   -1.91334087781463
C           9.50384023856185   -5.64268962781128   -2.84407375454003
C          10.04862694669033   -4.91832056275991   -1.78043357771105
C           9.57589647457079   -3.65015401012967   -1.41343597544161
C          10.25380485199902   -3.06967889767814   -0.36371690522531
C          11.27914430574894   -3.87649129030849    0.12409653149437
S          11.37610245511216   -5.37684805931803   -0.74820239751512
C          12.18054743129870   -3.60827728569356    1.17477388746776
C          12.28527404652575   -2.46518508004674    1.96485358992660
C          13.29700115824957   -2.52330869565505    2.90322834347286
C          14.02014424682820   -3.71546492313933    2.88494428260820
S          13.37682924231664   -4.77336684652609    1.63599597046267
C          15.08910693690896   -4.24568787894342    3.61605754821111
C          15.91925944082800   -3.79631896992518    4.63013773588284
C          15.97266916424207   -2.51297687389146    5.27590686748205
C          16.92929573041874   -2.22262331979170    6.31078713187612
N          16.95011636900015   -1.01384185034634    6.87679038896326
C          16.09488744106341   -0.08941120857352    6.48115331734725
C          15.15418981050255   -0.37307064598304    5.46202653236696
N          15.11939786734826   -1.56894962189557    4.89402518899681
C          14.22850312729388    0.60347059363839    5.02516847065040
N          13.47918631109946    1.39944289063851    4.67938708537435
C          16.13543980007645    1.18777663184982    7.09236531335401
N          16.14502817171066    2.23073173609829    7.56690697295378
C          17.89287534806011   -3.17929653445499    6.78540842491399
C          17.84223815813265   -4.44789326486329    6.14240525166305
C          16.89432257921221   -4.73993829301572    5.10558339925699
N          17.02545695297798   -5.97616041211253    4.64867423527040
S          18.22416650325184   -6.72011264624193    5.43562372287130
N          18.62614387099021   -5.48273621834037    6.39933561944033
C          18.76432554839405   -2.79700291165241    7.79841028963278
C          19.78630784664773   -3.46798943256434    8.45607739394109
C          20.54565415049145   -2.85513959002043    9.47699700385396
C          21.51592482292051   -3.64772417744245   10.02229171573052
C          21.56244824693948   -4.93055077762645    9.44683723714869
S          20.34384287734160   -5.10217950537711    8.20226793362854
C          22.42277173570810   -5.97273187340975    9.76128698367622
C          23.44824028707943   -5.98201010352610   10.73900427031756
C          24.13227597007478   -7.15031547390738   10.81950007475328
C          23.68869789673266   -8.15345600704648    9.89984639377506
S          22.34916593252041   -7.50864417143671    8.93653092616658
C          24.16713812464116   -9.39839487231660    9.74230437647507
H          14.56847418698914  -18.50087276619152   -9.31881023814941
H          13.05986181597797  -17.76425365861071  -10.07013356020285
H          15.60260793515965  -17.27175674389305   -7.18476665168218
H          15.15321381841081  -15.21833903478973   -5.69566726727794
H          14.33111001963867  -13.28831387613656   -4.67321471898047
H          13.00419586882024  -11.19172382966348   -3.98114460879814
H           9.97385274979027  -10.60327736881678   -6.44424845446773
H           8.67808600313376   -5.14354854215312   -3.33989206092774
H           8.75315292964802   -3.18458137493090   -1.92709910721109
H          10.02261981168909   -2.10089919140589    0.04089889951949
H          11.63539199200604   -1.61707441900747    1.84596322329840
H          13.52038988472046   -1.73189940051543    3.59161762482315
H          15.33629781637898   -5.26171415503476    3.32251646128264
H          18.61258749122140   -1.77760934520471    8.13610354542140
H          20.35356222719867   -1.84120939840489    9.78179984315436
H          22.18030334172200   -3.33500951538654   10.80757362730808
H          23.64638271031805   -5.12140031295512   11.35269032060184
H          24.94196308626181   -7.34463694406035   11.49978873374490
H          24.98237827684979   -9.75370678559470   10.34734139745048
H          23.75540493528151  -10.07388336060802    9.01520198030402
