82
 SCF done       -142.324666056576          0.000554185926
C          15.07590154768941   -4.33726274827105    2.69982948749239
C          14.28867257484778   -4.52479565179260    1.63237852323513
C          14.58593678311228   -4.23007092147933    0.25901983960679
C          13.59272511705923   -4.52976037938875   -0.60532109899189
C          12.43000520303110   -5.08302290685831    0.00295507578920
S          12.65773153298552   -5.20702119311805    1.73860128153691
C          11.27462411932639   -5.48413171243179   -0.61722539500401
C          10.95956083871136   -5.43254947254587   -1.99992308967164
C           9.73129494271883   -5.91766042844329   -2.30311458571122
C           8.97362374505986   -6.37500789649045   -1.18469387441025
S           9.92985884399072   -6.17198480639020    0.27724566602744
C           7.74506070259618   -6.96103240541853   -1.28764870428194
C           6.84886408700858   -7.42612592892985   -0.29292850911561
S           5.80523921799021   -8.74790949195200   -0.76107360968235
C           5.01656249523559   -8.76702098453671    0.79410238927914
C           5.53902721751311   -7.76976494096517    1.60809560445763
C           6.55944923690412   -7.01702852114159    0.99924641602784
C           7.16236141595832   -5.82570308303796    1.67008400486645
C           6.26711923991528   -5.32290965306785    2.79772365829624
C           5.93841178514284   -6.48040155482009    3.73627826134476
C           5.24035111382321   -6.00260155489735    5.00532877734087
C           5.05418609934296   -7.48291965389991    2.99352100227136
C           3.96392198372009   -9.68797160062196    1.05686076201677
S           2.91857804501382   -9.45910142399127    2.44084333776339
C           1.94545844181644  -10.83736140652924    2.01892844734753
C           2.42086334941084  -11.43990946748328    0.87097216795982
C           3.55743497417989  -10.79977790062452    0.33701530135194
C           4.23995733445434  -11.31545083386514   -0.88942592993911
C           3.80701214459998  -12.74327271746140   -1.21049606684509
C           2.28514477093614  -12.85765155172760   -1.18838991503234
C           1.81644410418035  -14.20923342076570   -1.71628492534456
C           1.79835408881995  -12.64672188167255    0.24556767868727
C           0.83365250593994  -11.21055882804990    2.83420778812975
O           0.21011835856993  -12.40450561836681    2.62158479426319
C          -0.77738456366683  -12.53097779081482    3.49490988229879
C          -0.82230847754562  -11.43466879766618    4.32780204134676
N          -1.68557508836120  -11.29187985310361    5.43362717051508
O          -2.65368438277073  -12.02531546559379    5.48233932234984
O          -1.39431729986227  -10.46722547090499    6.28110810930419
C           0.22146138147497  -10.55570833516455    3.89974409972075
N           0.52854584711456   -9.32913840930001    4.43721330363086
C          -0.46873836470459   -8.47560474637804    4.88181087590577
O          -1.70967249868373   -8.52552125311359    4.31854071778152
C          -2.46543431526489   -7.60776842394710    4.90528249535892
C          -1.72823708375719   -6.92412151118574    5.84843651949575
N          -2.19478184837467   -5.90415709365287    6.69450896334425
O          -3.34749526925219   -5.54617495478744    6.57003944832780
O          -1.41022362579850   -5.44267844299937    7.50715779663613
C          -0.41163305596458   -7.49228064063369    5.84574042868656
N           0.66819912656782   -7.07237805207833    6.56863550676835
H          16.06091559971041   -3.91933794546686    2.58863528879250
H          14.75392498722790   -4.59334021021508    3.69237027723936
H          15.53484993506274   -3.80469782418020   -0.01619620878489
H          13.64637598900172   -4.37511144443439   -1.66852561065102
H          11.65097345223034   -5.03922998654523   -2.72330558093793
H           9.32320476875593   -5.96058176403431   -3.29779921772651
H           7.42325840477777   -7.16420332894469   -2.30342199528540
H           7.33348507697152   -5.03886420653740    0.93240647900977
H           8.13557239964418   -6.09720549812473    2.08939836964531
H           5.34190128770526   -4.91145955167594    2.38812421718149
H           6.78061129084352   -4.52822282715578    3.34058137784699
H           6.87574387046312   -6.97453140725356    4.01429582805473
H           4.32098205177381   -5.47459457942784    4.76060572418714
H           5.88499439306118   -5.32769745031363    5.56296331646668
H           4.99178492528803   -6.84630588797188    5.64531045400443
H           4.03731353700383   -7.07796467113045    2.93131960408923
H           4.99524367787361   -8.41362826942737    3.56483940540162
H           5.32356238872353  -11.27910860742713   -0.75425775895125
H           3.99956715056803  -10.66049595327325   -1.73354792710063
H           4.22928448413329  -13.43096760027146   -0.47432545671309
H           4.19377312746127  -13.02243142302632   -2.19173979796433
H           1.86799866239665  -12.06697112255483   -1.82214734774657
H           2.24702288219115  -15.01729541915140   -1.12838726689821
H           2.11965623540076  -14.34061899991925   -2.75230357873927
H           0.73278170625472  -14.28597969723889   -1.66361267976270
H           2.05013660481549  -13.52645011374828    0.84706058345731
H           0.71075798455664  -12.55037470609430    0.26379551950971
H          -1.37884986750701  -13.41761676139044    3.47672735631106
H           1.36465749290250   -8.88938899019669    4.07358115974892
H          -3.49373948901606   -7.51861764335279    4.61868927174193
H           0.42433885127580   -6.46100267115868    7.33809687840922
H           1.35819769581167   -7.77709165612993    6.77349807355709
