86
 SCF done       -179.022612729741          0.000440395466
C           6.44308126892958  -10.86679644190767    5.02623000944156
C           6.93272892695445   -9.82090857995127    4.34847301778210
C           8.31263806340849   -9.46844972592450    4.15820595698112
C           8.50730808259291   -8.35359144378818    3.42416929227374
C           7.30611091419314   -7.72873399820440    2.97396535515451
S           5.90967665037574   -8.63078322033733    3.52633316898990
C           7.19553500532990   -6.58850412480317    2.22165803247121
C           8.24651185958618   -5.77532930268453    1.71252523244162
C           7.82290916376662   -4.70096730470816    1.00979365449677
C           6.40113292080623   -4.57668567606262    0.91820333760990
S           5.64020210204712   -5.92298468188014    1.75787926880554
C           5.74779904959080   -3.61435150117560    0.22220179768305
C           4.32577687792680   -3.45427904418665    0.09069147366983
C           3.38652870263385   -3.50747229703897    1.09399314203680
C           3.54907370439637   -3.53966495798299    2.57072667896422
F           4.78750582218243   -3.24387143503271    2.98024509278278
F           2.74017011288982   -2.63450314341848    3.16521127038352
F           3.22263872454390   -4.71881922540338    3.13370191556921
S           1.76426516792078   -3.28036342445944    0.51794717884013
C           2.34586352820353   -3.08169860109145   -1.09786189264036
O           1.51197419517816   -2.86029805996740   -2.13216342584983
C           0.12845128857313   -2.83854986315224   -1.84132390673734
C           3.71754678848583   -3.18176526437100   -1.18639346274721
C           4.45907788822353   -3.05862669175485   -2.41060557894601
N           3.82678073505279   -2.70597907909732   -3.60910103182295
C           4.81214810758289   -2.67281189456321   -4.52470661944214
N           5.13059047093909   -2.44468975919962   -5.80945910322927
C           6.51740523328182   -2.66169519493203   -5.88504939147924
N           7.04109134656665   -3.00002077086911   -4.71877600982782
C           6.01295073177482   -3.01235545178274   -3.85540032623833
N           5.75226854661730   -3.24166921588073   -2.54585405016992
C           7.21475983605615   -2.51362396814341   -7.10659346647794
C           8.53513068529640   -2.78895421167874   -7.25265386833061
C           9.21856431964380   -2.62850930736350   -8.48143735155555
O           8.58430069688951   -2.11151169518409   -9.56723630850592
C          10.52526765837676   -2.92079750881518   -8.84473943446929
C          11.80149671237677   -3.45851839990871   -8.36349101200415
O          12.13494685681640   -3.88066684149216   -7.28907506582539
N          12.63042655720992   -3.38181089204561   -9.48604298050447
C          12.04060640160656   -2.85976366392540  -10.63255378413584
O          12.58635028596014   -2.71244649858200  -11.69342220086421
C          10.66612102200209   -2.56340643150197  -10.20368470591295
C           9.44642610563879   -2.05995941040016  -10.62310003862645
C           9.03787849808968   -1.53792762854282  -11.87090920288323
C           7.79606694644033   -1.02522933639182  -12.09507895803554
C           7.42269563004802   -0.48541547371230  -13.34320575508686
C           6.20814990919143    0.08535207989168  -13.61502598601051
C           5.78933553552381    0.67399565465293  -14.87310319170801
C           6.48436463470463    0.68225011866641  -16.05580202678379
C           6.01005156332166    1.26873568351581  -17.24794875547150
N           5.68245833007998    1.72793956831954  -18.24795397954502
C           7.75178993426577    0.10187703038254  -16.27339917313593
N           8.77299967456647   -0.34877835570936  -16.54339525025941
C           4.46415824564390    1.25195659841362  -14.67375566264312
C           4.04943334664209    0.99530821255488  -13.34422856807123
C           5.10511505993501    0.24419029419947  -12.63682123889651
O           5.05394945351896   -0.15044544492167  -11.48895026827321
C           2.83852925083185    1.41677653239184  -12.85102283901474
C           1.99484665435285    2.12904631433941  -13.70944835570711
C           2.41801606920637    2.38271509417316  -15.03578234778570
C           3.64194693153199    1.95493110908599  -15.53502921511208
S           1.22640636210888    3.28046958544081  -15.92648868774534
C           0.19010068694439    3.30222245431800  -14.52451633020622
C           0.70753284293122    2.67078072858749  -13.44392070265917
Br         -1.47713374015428    4.15651599606977  -14.61787837939884
H           7.10265657493011  -11.56583977088626    5.50964773988919
H           5.38619221857250  -11.04162292199413    5.10989658654025
H           9.09519836896935  -10.07061696084668    4.58482208129705
H           9.47285492497193   -7.94473278751589    3.18496862314558
H           9.27972201090427   -6.01831960039652    1.88472329676153
H           8.46549547241795   -3.97568806841923    0.54447829065757
H           6.34061098918502   -2.96168266881076   -0.40184025013481
H          -0.19611934312839   -3.79588232124955   -1.42469810974936
H          -0.37795645593092   -2.65533395483962   -2.78674438692371
H          -0.10722793266790   -2.04125468214321   -1.13090620550781
H           2.83894386878388   -2.53751394589385   -3.70499851397090
H           4.53527382967250   -2.18443202485080   -6.57843509483419
H           6.64338988291976   -2.16684114052037   -7.95751952226039
H           9.10830224832646   -3.15428000304484   -6.41542631098757
H          13.59366382408107   -3.68534942957635   -9.46493515136785
H           9.78576349472591   -1.55571270351554  -12.65187527454236
H           7.07275466647458   -1.01647645346424  -11.29325983028517
H           8.17091958816209   -0.51939713341110  -14.12436868466200
H           2.55143984746012    1.20576985573007  -11.83277357101349
H           3.91726697993092    2.17623450514089  -16.55233988933066
H           0.20329400290776    2.59036359960777  -12.49827080860264
