113
 SCF done       -176.783377289623          0.000346629162
C          10.96409787382773   -7.93269124847265    6.75852707193436
C          10.47408305640568   -6.88861176437452    6.07811314578971
C          10.84764383898720   -5.50730566260886    6.20117241855705
C          10.17668218153605   -4.67078379910403    5.38155045916447
C           9.21896002636472   -5.31058213389432    4.54282377273769
S           9.21249239961314   -7.04057632842403    4.84513716920975
C           8.39017587401639   -4.72443536377994    3.62353544544937
C           8.28359230457942   -3.34677954543905    3.29161300933452
C           7.35303008046891   -3.07744956470571    2.34712003356958
C           6.64421607873408   -4.21767778243139    1.85527900926968
S           7.26039353796124   -5.66045278502222    2.66036730663066
C           5.62585048205597   -4.15701062634230    0.95731291155129
C           4.81446661077724   -5.21226403887117    0.41631462440805
C           5.16751946649078   -6.56816946326809    0.49187499660125
C           4.36238181032868   -7.57785003671158   -0.00993679304872
C           3.15314829546122   -7.20598762879910   -0.60307991178548
C           2.77631447895667   -5.85460559568061   -0.70766985026477
C           3.61417025123174   -4.86911337492236   -0.21280129576987
C           1.48635112784680   -5.69811067488650   -1.33237535826029
C           0.91114641027307   -6.93431659132803   -1.66666996327045
S           1.93569328205648   -8.28740776291551   -1.24302693272458
C          -0.33113552891211   -7.01734720222599   -2.27329919592356
C          -1.00805361089467   -5.84492260498356   -2.54829870237828
C          -0.45284627104220   -4.61093350971837   -2.22351171502121
C           0.78505612042890   -4.53111156841506   -1.61904869691898
C           4.77780512726516   -8.98281703325961    0.10141142774059
C           4.61059420802445   -9.85743447464204   -0.97427565993668
C           4.98525491848521  -11.17283642423310   -0.83646582924824
C           5.54074427731489  -11.63740888582118    0.36557207084792
C           5.72608076962650  -10.76984767400711    1.43044534359070
C           5.34248762853578   -9.44872284643755    1.28919984820440
C           5.82596497359671  -13.05195848708901    0.22124310353324
C           5.43935927426096  -13.45634765698872   -1.06689073177994
C           4.87608356558696  -12.29056723373945   -1.84558164885753
C           5.71296103113873  -11.99807245580843   -3.10437626657795
C           7.18368233430358  -11.75090930376114   -2.79120298262076
C           3.40927467079621  -12.53283374323579   -2.24731559524852
C           2.50749639762263  -12.81224192842965   -1.05126841664218
C           5.59598646048490  -14.76122321318315   -1.46441514266186
C           6.15678790015330  -15.69985690375710   -0.58505718048114
C           6.53331155671955  -15.27988326673376    0.69590829928966
C           6.37208095814368  -13.97051857639519    1.10454542318056
C           6.31257036831821  -17.06405975756764   -1.04728731841854
C           6.99610554129253  -18.04326823721787   -0.43657616959479
C           7.15393910334310  -19.40200507772855   -0.91982734231220
C           6.35951072213230  -19.93812082865301   -1.93753888480369
C           6.53557957680527  -21.22812579556077   -2.42956506662089
C           7.51435433739576  -22.02177685207930   -1.81971339529099
C           8.30239685451872  -21.52028546782961   -0.76840420445347
C           8.12697622367615  -20.21411035616074   -0.33761367828838
C           9.19923647496755  -22.51777704507762   -0.24103028986657
C           9.04042462986673  -23.75682564058554   -0.88133094381288
S           7.82140425811450  -23.71228102999136   -2.13348523156533
C           9.79393584573649  -24.86226285189701   -0.52271393511866
C          10.71942764758561  -24.72504764815598    0.49350949932510
C          10.88955988237247  -23.50422453176832    1.13965941612694
C          10.13800714576720  -22.40441497655494    0.78001349261104
C           5.68041497963798  -21.68554440115787   -3.50751231693258
C           6.04807060498773  -22.35675372832072   -4.62373085307796
C           5.15909553048531  -22.78321941548349   -5.66240207213485
C           5.76618518303162  -23.36053032050499   -6.72208380127341
C           7.18435838327125  -23.42772275152496   -6.61430748928290
S           7.70701189894475  -22.73519915916104   -5.08858425684345
C           8.06858996392480  -23.93450543880546   -7.52792715940911
C           7.76873725516115  -24.50862078634945   -8.79816304481597
C           8.84952995664448  -24.91265895979559   -9.49730893580130
C          10.10459854039681  -24.68935760962497   -8.83504078921661
S           9.80401636453652  -23.93711224457002   -7.25991899265838
C          11.33039212821470  -24.97858155514753   -9.28957353380449
H          11.73036767096479   -7.79342974923580    7.50049384022331
H          10.61313357102995   -8.93393576084036    6.58838916178613
H          11.60540462910876   -5.20613718790345    6.90281940515422
H          10.32979441038898   -3.60655629093781    5.34288481400325
H           8.89595140958791   -2.60254261814017    3.76882484350900
H           7.13181569899437   -2.09185646146797    1.97565813009007
H           5.35409746462553   -3.15845442088795    0.63458320709764
H           6.11776410414876   -6.84502015429693    0.91804828568312
H           3.32498320165851   -3.83165981497106   -0.29106707381734
H          -0.75377079427153   -7.97866252792858   -2.52138738623730
H          -1.97801796364861   -5.88737593769691   -3.02045655681090
H          -0.99868562393554   -3.70671050854008   -2.44790613236943
H           1.21208720247438   -3.57170126519025   -1.36876234598534
H           4.20890485529545   -9.49491185839355   -1.90862098639578
H           6.15653113565415  -11.11567588721716    2.35836292502459
H           5.46286424199563   -8.76581284456680    2.11749309987531
H           5.29609543954332  -11.12082495950396   -3.60397942114415
H           5.62532914919685  -12.84516477840668   -3.78841360668818
H           7.29480464902891  -10.90264790706390   -2.11945586566169
H           7.73178908593522  -11.54025700560936   -3.70688792086328
H           7.62698413004660  -12.62384212983715   -2.31723103558810
H           3.37081568723503  -13.37866137349000   -2.93745157063931
H           3.04185254688415  -11.65086660942968   -2.77619172997308
H           2.85220142980423  -13.68839931905165   -0.50620939395898
H           1.48806814124975  -12.99202145207483   -1.38524648181293
H           2.50150841678994  -11.96365657286401   -0.37112146134130
H           5.29849287766203  -15.07538168759211   -2.45549742807304
H           6.94892954699264  -15.99605186669870    1.38805883954957
H           6.66638756621637  -13.66921035478007    2.09914341620292
H           5.83955758562179  -17.26769171653957   -1.99943800555864
H           7.52036867618444  -17.83267748695545    0.48604513431513
H           5.58143542838512  -19.33416077689652   -2.37886019960300
H           8.74211227772381  -19.82821047529980    0.46172288571340
H           9.65527412435322  -25.80426111206047   -1.03011051559864
H          11.31692641467610  -25.57434952213571    0.78911036563267
H          11.61897761290829  -23.41899300499045    1.93134412159649
H          10.27452441021632  -21.45912558165555    1.28327579013952
H           4.64004859505320  -21.39191585484802   -3.43589751427780
H           4.09641927897823  -22.64306828510527   -5.56684436936294
H           5.24835134981945  -23.74094640292804   -7.58455990620812
H           6.75413254579318  -24.59908961407854   -9.14411489578982
H           8.81862337515930  -25.36741482158703  -10.47179471794630
H          11.46463591719239  -25.43326160315997  -10.25526352409429
H          12.21200289631700  -24.76763520524838   -8.71277994351803
