109
 SCF done       -196.992929889001          0.000982902811
C          11.28787253655665  -18.03181973055309   -5.14720892796239
C          11.49101534586072  -16.71467241553949   -5.00355750595260
C          12.50000866269065  -15.90700318885564   -5.62615820227007
C          12.45507302797184  -14.59939205937522   -5.28571461534104
C          11.41423661891141  -14.26791713138954   -4.37418346500702
S          10.48931548052296  -15.69133376608609   -3.96072004304960
C          11.12395926254264  -13.02155294404781   -3.85976952694324
C          11.78867555641516  -11.79979954599177   -4.12148589966205
C          11.26663698828153  -10.72681602769688   -3.46630391732840
C          10.15564192169064  -11.02531745749846   -2.64401542679436
S           9.80558575139464  -12.75044324229260   -2.74700549348802
C           9.31359087585381  -10.27722722701211   -1.85031458077017
C           9.22469623013876   -8.91723898332850   -1.49233491949121
C          10.12958365051842   -7.84425939817491   -1.73358055207998
C           9.84922281366996   -6.48955252067664   -1.29395063889940
N          10.70485313948791   -5.50289351239621   -1.62210387193437
C          11.81263316319869   -5.77982291892638   -2.25774265853558
C          12.13561165512329   -7.12936523015021   -2.60163418407702
N          11.28304625921439   -8.10006439962731   -2.35100642478206
C          13.35759385762572   -7.45037383830012   -3.23513614674991
N          14.34540755163369   -7.70449624453104   -3.76003103079835
C          12.70603216253052   -4.73240335028048   -2.59606378717717
N          13.46929494970474   -3.92528595197950   -2.87709187189314
C           8.69151209790446   -6.14234777183926   -0.57146689921583
C           7.80535350743074   -7.20459920069522   -0.30282871473559
C           8.07075132139142   -8.55184949026885   -0.74094847712356
N           7.11598608629040   -9.39601665781129   -0.35633970027444
S           6.00521435362422   -8.59021481186897    0.48141472438945
N           6.66794934479996   -7.13163405532843    0.39605588477295
C           8.40483781229362   -4.79217162017663   -0.11616841742149
C           7.07377071286588   -4.34976875303572   -0.07885256079327
C           6.78932055767794   -3.09727524361914    0.40122185073409
C           7.81720326698389   -2.24963267872132    0.84758486781225
C           9.13922873326472   -2.67031596745933    0.79724939291400
C           9.42237675742116   -3.93350193946106    0.32002927980599
C           7.21812745848531   -1.03570133791715    1.35421380412708
C           5.82101325325962   -1.12945480448340    1.21358387868275
C           5.44075864660524   -2.42474920838873    0.53382830444609
C           4.89738399005120   -2.19560626869918   -0.89502123235234
C           3.59950074247002   -1.40571514459478   -0.99155068701443
C           4.46803371626146   -3.25981304266997    1.38145119344672
C           5.05864938032404   -3.65253098124366    2.73087885973242
C           5.01149643422543   -0.13955765712793    1.71652166199570
C           5.58095570219837    0.99371076802854    2.31373770496755
C           6.97234189313169    1.06775543522381    2.45104010552315
C           7.79203366685880    0.06337240400013    1.98008673447401
C           4.69948610846399    2.01924836496196    2.83471653411927
C           4.91462427176589    3.34589392626117    2.93290660824232
C           5.98348052175537    4.13157512621479    2.38262173414168
C           6.66023747484714    3.84671491808243    1.17783420737792
C           7.76264990977432    4.64990447642478    0.71271838395045
N           8.45176047866975    4.26675976127397   -0.36461777589225
C           8.08115765001956    3.19327220082173   -1.02754531092979
C           6.89242315093380    2.48903967862618   -0.65234575057393
N           6.22767801768092    2.82103091837867    0.42317981728400
C           6.42612629661842    1.42501570665656   -1.46159142459732
N           6.09540961110357    0.56889118394908   -2.14762219167339
C           8.84821449915269    2.76685043487229   -2.13604638693094
N           9.44764892642320    2.40068663235279   -3.04217926338743
C           8.16888939329681    5.85518088877122    1.37111954712046
C           7.41397229187190    6.18612250501707    2.52285427748489
C           6.35166108190089    5.33873715668393    3.01168527673735
N           5.79293073176877    5.83508080803949    4.11791362525226
S           6.51083109602654    7.21942579295668    4.50011437076951
N           7.57451802846487    7.25801525923974    3.28991743315005
C           9.24867922605772    6.57285554436067    0.83938789111363
C           9.87112811728533    7.73803462887476    1.23226896587293
C          10.97251845510557    8.27733166700211    0.51500353692634
C          11.47928554173225    9.42938301007658    1.02963773509595
C          10.79990987737538    9.86425868713790    2.18988025666481
S           9.49640759176263    8.76203594373812    2.59643706623988
C          11.06487253699786   10.98372929777296    2.95118382157553
C          12.08213822148561   11.95428213050197    2.73597320646802
C          12.10628905758235   12.94862838101819    3.65208735160339
C          11.10051472443856   12.83791801761690    4.66875703111337
S          10.13109851701676   11.38454698706607    4.37210026529042
C          10.88179914046104   13.66567532895247    5.70048546395446
H          11.91934203509662  -18.61783314395353   -5.79143285821408
H          10.49546942373478  -18.54132013136241   -4.63021419153272
H          13.21376058810956  -16.34389816961303   -6.30153911132770
H          13.13371277892985  -13.85216033655651   -5.65632566842230
H          12.63293291045023  -11.73954249518051   -4.78450286388096
H          11.64917241750536   -9.72789424133231   -3.54371876191003
H           8.50461494044514  -10.85101340475910   -1.40911418477770
H           6.28757642694278   -4.99837465086321   -0.42970052752914
H           9.93683397083641   -2.02872737105311    1.14095608028325
H          10.44343082375244   -4.27909109354340    0.30963245058812
H           4.75599047827564   -3.17648083266013   -1.35460314287497
H           5.66217292404993   -1.66531895644535   -1.46628239571332
H           2.79744133764182   -1.87729121684866   -0.42880889509143
H           3.29590449899263   -1.35047158171449   -2.03427143860857
H           3.74106474886831   -0.38983933695306   -0.63430198454262
H           4.20526293703576   -4.16273404275467    0.82693755702809
H           3.55541630208506   -2.68542433222649    1.54545007299390
H           5.93437503998149   -4.28306642303358    2.59657495771580
H           4.32482219062360   -4.20327174490469    3.31535715922259
H           5.35342832462582   -2.76815513776013    3.29227405577682
H           3.93603987360511   -0.21069418279335    1.65348776872826
H           7.40287763784728    1.91384907325441    2.96829867155719
H           8.86283525152684    0.12285720371850    2.11182833060609
H           3.75541245646486    1.64636420001301    3.21544927526456
H           4.20733745074830    3.93458356302627    3.50481884241536
H           9.66786140098063    6.11384625685536   -0.04909922116414
H          11.35324282870638    7.78666237661787   -0.36361565417039
H          12.31133614964208    9.96517171990744    0.60931777979950
H          12.76125645971868   11.87822606646003    1.90559043066613
H          12.80182627125368   13.76882959908326    3.65392983027637
H          11.49614132016141   14.53676241273319    5.84549076559828
H          10.09629035614670   13.48740410372307    6.41169269984097
