85
 SCF done       -150.792515792894          0.000699894405
C           0.20880816090108   -5.23250829234592  -12.44950252967618
C           1.44011276548910   -5.45816499215297  -11.97536634296234
C           2.67193564038774   -5.58300113584790  -12.70317953628295
C           3.75939287396989   -5.80832950393830  -11.93389847955959
C           3.47942279217879   -5.88236881051102  -10.54014802712744
S           1.76556085870338   -5.65136654799289  -10.24653978663466
C           4.35810931371305   -6.09893624588554   -9.50798658907441
C           5.75895029354971   -6.30040433165877   -9.51846381310139
C           6.30752785008648   -6.48516952205907   -8.28792201480463
C           5.38572807498722   -6.44781009307803   -7.20602237474805
S           3.77131086662676   -6.15723035507944   -7.85747926260205
C           5.68258285564464   -6.61404280431512   -5.87919808015427
C           4.78347685231031   -6.59442921130516   -4.79135336994485
N           3.44080208663045   -6.39007655381539   -4.90872737749317
C           2.83359609312099   -6.43963515182961   -3.69033467126237
C           3.83395367934661   -6.69339910877735   -2.74704528886529
C           5.03957515082623   -6.78339564199641   -3.42503319035208
C           1.42015255130575   -6.28500391113692   -3.53132723128634
C           0.87572971972224   -6.38681615083678   -2.14259664711575
O           1.33367704123303   -5.80193344291265   -1.19081012011038
N          -0.26480566930097   -7.14830109740397   -2.04244903076266
C           0.60630714148563   -5.99421415817700   -4.58455568284595
N          -0.73815541109884   -5.78323803161594   -4.49263645751510
C          -1.55649890798831   -5.46218686425438   -5.51709042198576
S          -0.97031944032745   -5.42650364664917   -7.15524292026968
C          -2.58674084191009   -5.10103493245717   -7.71267066993842
N          -2.79386824804339   -4.95088010103394   -9.07300831776486
O          -3.93289382306119   -4.73057149452400   -9.46129069032470
O          -1.81456251077613   -5.05321035946601   -9.80649747117029
C          -3.50266619163646   -5.03064934573476   -6.69199104601486
C          -2.93691579545489   -5.21326925809130   -5.42055716199616
C          -3.72863718432159   -5.16990719335960   -4.21799680009377
C          -3.30367097600230   -4.91545272145574   -2.96098608689990
C          -4.11723454871264   -4.93711526541954   -1.79225254925585
N          -5.45972348084418   -5.17305760191266   -1.77199637717657
C          -5.92366654601135   -5.17022885177755   -0.48674289946186
C          -4.82556461722090   -4.91953820442844    0.34272688414274
C          -3.70979558512182   -4.77110650652320   -0.46665964681008
C          -7.28762690889609   -5.36449170117226   -0.12742792326485
C          -7.55051901026940   -5.52958117592353    1.33980213123204
O          -7.01335514058073   -6.36839845467839    2.02739852711950
N          -8.44749836240271   -4.64470981650199    1.84214652533875
C          -8.30496655491138   -5.42579883501997   -1.04466181509136
C          -9.65272113799038   -5.71059992484567   -0.77536011355035
C         -10.63134957902676   -5.70996791932127   -1.73720554088655
C         -12.00646212573424   -6.00326205263456   -1.55961279504741
C         -12.75328598964400   -5.91183295993577   -2.69197304575399
C         -12.01625465544960   -5.53583265207983   -3.84174070523741
S         -10.32806798705197   -5.31001258922206   -3.42454310959381
C         -12.47877440149042   -5.34652719908254   -5.12161997543030
C         -13.81692349710051   -5.47906133172616   -5.58683155010013
C         -13.97806418153913   -5.21844496060853   -6.90284721273623
C         -12.77055635739138   -4.85845695707087   -7.58971126807425
S         -11.42338665879076   -4.87591295852356   -6.44069029611054
C         -12.62288162204346   -4.54874835357723   -8.88479470119593
H           0.03872738320974   -5.11859872209867  -13.50623480452751
H          -0.63556526336682   -5.15528511390672  -11.78821635246664
H           2.68428383963818   -5.49624099235595  -13.77554766749914
H           4.76054680826566   -5.92663747549678  -12.31034384980458
H           6.31883944190062   -6.30215608292438  -10.43677066406772
H           7.35604853052496   -6.65130434783091   -8.11189823598362
H           6.72034688590431   -6.78526635974046   -5.62924792742072
H           2.97177471246986   -6.21457256579065   -5.77843928918816
H           3.68152383218616   -6.77739066136701   -1.69002264934904
H           6.00347462461764   -6.96666742856576   -2.99319518146579
H          -0.59767603823437   -7.31951069722511   -1.10433492546706
H          -0.42964175652969   -7.88497866990845   -2.70882337997173
H           1.00302689185161   -5.85700320454202   -5.57984358819252
H          -1.16415948126927   -5.90483899690871   -3.57825263821869
H          -4.54414759823316   -4.83393040441001   -6.87246706920838
H          -4.78313820901095   -5.33947908605645   -4.39221880456137
H          -2.27803886080667   -4.63700672441678   -2.76302696211144
H          -6.02642344640115   -5.34016841750335   -2.58528390186842
H          -4.85781632004677   -4.86479202227997    1.41195882646469
H          -2.70648258166405   -4.56856956843677   -0.14638436615532
H          -8.85104603161588   -3.91919697816880    1.27775261304141
H          -8.65595016736999   -4.67300323427159    2.82679679313100
H          -8.07291619065573   -5.25809641562713   -2.09024106479337
H          -9.94789621009266   -5.96592853668971    0.23274678737473
H         -12.39592851784981   -6.27578218598713   -0.59423037220357
H         -13.81043566377921   -6.10332226841776   -2.73644934934722
H         -14.61423437249333   -5.76300730268362   -4.92280046033131
H         -14.91468561567883   -5.26493644383884   -7.42963838675765
H         -13.46926515027756   -4.54880423656222   -9.54867435588793
H         -11.66567420181135   -4.29143758464992   -9.29948381535995
