92
 SCF done       -206.800813403981          0.000610421931
C          12.49724322162825  -13.18278871132525   -8.67836236955722
C          11.53386783724258  -13.25070924093090   -7.74886567888210
C          10.82094483657318  -14.41396420713113   -7.30485036783892
C           9.90569833393353  -14.16825972750844   -6.34058709509161
C           9.82329718315650  -12.80215839260547   -5.94872555966871
S          10.95054385307313  -11.83404794160248   -6.85735412499037
C           9.00050956136997  -12.25649284777610   -4.98152034199977
C           8.06700482964894  -12.92709507650820   -4.16199814769680
C           7.44254372675208  -12.09841959675316   -3.28060396002467
C           7.84692188595114  -10.74019812918533   -3.35623877861129
S           9.03017313805716  -10.54024411209718   -4.61882317766655
C           7.36761244212288   -9.78635916632546   -2.47764924614872
C           7.65956554453729   -8.42903780747599   -2.32403587855526
C           7.08827568437334   -7.73435990868459   -1.20562248452278
C           7.40260670293971   -6.36061377067678   -0.93397893017922
N           6.87812509205053   -5.75417716237399    0.13858610773949
C           6.07822846198504   -6.41635283483071    0.93892951962152
C           5.75175350613831   -7.77665185598223    0.65554150212451
N           6.26232868970347   -8.39203179199106   -0.39384113642953
C           4.86652047103540   -8.49221708793332    1.49779654445824
N           4.14726604893456   -9.05548740289091    2.18924531373006
C           5.53333656971930   -5.75745454636252    2.07003002582820
N           5.06539959892409   -5.24866894630945    2.98267839772459
C           8.26987267487124   -5.59322995518132   -1.74031059212748
C           8.77730071118031   -6.24551379847515   -2.88693980366206
C           8.48611983682394   -7.63466661848267   -3.16173490871418
N           9.07718835605311   -8.03750539018544   -4.28074790877075
S           9.90648337059493   -6.81303006090183   -4.92863464796726
N           9.55896160834611   -5.71418906219229   -3.81978050333130
C           8.61961626414894   -4.28309820256287   -1.33103987158916
S           7.99671409650045   -3.61979593899852    0.15484555058719
C           8.91414568054939   -2.14185533043249    0.01594128689393
C           9.66273941280681   -2.16128166266590   -1.15933205561390
C           9.49963404424800   -3.36688939286924   -1.89496325878273
O          10.28476854029419   -3.36845914459804   -2.98300169439536
C          10.95426384334313   -2.19167223295794   -2.95287969335346
N          11.87609040312506   -1.93032273923422   -3.99699010255776
O          12.48189109744633   -0.87812836464395   -3.93256143437966
O          12.00317408148026   -2.76545927250599   -4.86521001361302
C          10.63443602509049   -1.41274153139629   -1.86981407003111
C           8.87398275187242   -1.11789359864762    1.00972416370485
C           8.82558182496640    0.26091880232212    0.68836197838113
C           8.53863447692621    0.76698372450464   -0.66617934455625
O           8.25959082432804    0.14991581077957   -1.65081942557457
S           8.58518376920908    2.56547771135120   -0.64617266667644
C           8.90941591314967    2.63641418629351    1.11161808712971
O           9.07197254350289    3.66075514873808    1.70413875417533
C           8.93538714049508    1.26016640839280    1.65301516577335
C           9.08146485474747    0.98529136228009    3.02457945021316
C           8.99977028128189   -0.37862358771245    3.34833293694998
C           8.89957491841385   -1.38372349832726    2.39381361232847
C           8.93037232788529   -2.67602510156293    3.12508018746455
O           8.99563496661879   -3.79661007555243    2.72340861163816
O           8.92111079148983   -2.38503355755773    4.46476046206716
C           8.93287574137714   -1.03064824277729    4.68420651927648
O           8.85678525011789   -0.55939155535594    5.77416765682729
C           9.31861351254880    2.00821471086936    4.01494500428008
C          10.22251618831998    1.84417414644351    5.00274473459949
C          10.46442248048960    2.83138053709980    5.99760349872033
C          11.43168027602738    2.71907096140286    6.94759662224746
C          11.69905658846597    3.63824362117641    8.04555196866586
C          11.06152026905928    4.82314768617826    8.29746730497227
C          11.37307426429804    5.67494007931594    9.37991145782521
N          11.58023794365879    6.41011560110252   10.23651818111664
C          10.01427508263903    5.37777493802091    7.52955342970316
N           9.16130210144176    5.90168426992931    6.96819463459734
C          12.77964867607434    3.07291321909343    8.84423057844203
C          13.19735611710850    1.85357139150614    8.25611811907596
C          12.40257698017234    1.59095462613546    7.04392996293100
O          12.54456509106870    0.66006089421389    6.28168062526829
C          14.20605240755578    1.08173028470014    8.78106186562123
C          14.83435285583290    1.53294292718107    9.94535421668444
C          14.41063988822033    2.75236591246550   10.52859381491365
C          13.39163635603897    3.53217397292216    9.99731023547333
S          15.32058527534746    3.12489551585761   11.96058331863094
C          16.24588749594028    1.66059274226355   11.75880203835840
C          15.89211056190875    0.92721594903701   10.67628140861167
Br         17.58891772324631    1.23756915671763   12.99606304585496
H          12.82554608341674  -14.06711306120905   -9.19575015710816
H          12.97024731611989  -12.25261962316270   -8.93538165560818
H          11.02818334703944  -15.38085555493653   -7.72720276731397
H           9.28219877367530  -14.91924773297583   -5.88979216296270
H           7.88356695783232  -13.98405265263261   -4.23191961612541
H           6.70628119297732  -12.41906881028061   -2.56480803737539
H           6.66375177282739  -10.16004375777355   -1.74234253869960
H          11.04886291590984   -0.45187991724528   -1.64615841159974
H           8.80123951852446    2.95047977460862    3.89366154027940
H          10.81513457683005    0.94322078345041    5.05230311701367
H           9.81378709957812    3.69591010516347    5.99105551452793
H          14.49898958297946    0.15821013321414    8.30682140797464
H          13.10746804208880    4.45164536517137   10.48069121157836
H          16.35695904164610   -0.00244316875557   10.40314392766134
