98
 SCF done       -190.229540649038          0.000295531900
C           9.82006072586932  -16.38537588395489    8.17971796297168
C           9.16964650432665  -15.42233659593635    7.50999400148134
C           7.75653664331823  -15.18800183666155    7.45758608780352
C           7.39562662648945  -14.13219766849824    6.69173739857212
C           8.48485507529125  -13.45252910279590    6.08334611207718
S           9.99722659520843  -14.20888832517928    6.51970854193027
C           8.41861422869201  -12.34579596599440    5.25799467361507
C           7.26313990252161  -11.64499161466075    4.84695095541743
C           7.51430993084096  -10.59068360208378    4.01940616582391
C           8.87926322854137  -10.39010705920360    3.72513097795930
S           9.83895686605973  -11.60468356772236    4.56517807056236
C           9.57305471563867   -9.44112878775240    2.99837871968755
C           9.19105726637158   -8.38025665048409    2.16345384107337
C           7.91816993001107   -8.10507183059062    1.57831981355081
C           7.67670038220686   -6.93940588670838    0.75259402581438
N           6.46406453978014   -6.75571965012589    0.21813569602575
C           5.50658171786174   -7.63369831356103    0.42426745897227
C           5.75111181999239   -8.79020591469139    1.21487269730056
N           6.93400432078101   -8.98420103999621    1.76289943594911
C           4.73646277688863   -9.74947975169550    1.44173838778523
N           3.89956423124144  -10.50928641518198    1.63346973754718
C           4.24036450580394   -7.41580580275551   -0.17101969503524
N           3.20985882350938   -7.27171790216267   -0.65124392839825
C           8.69343865700031   -5.98382662140400    0.47011408422607
C           9.97672990731137   -6.30822750538270    0.97795644224135
C          10.22172363284388   -7.46804098470029    1.78616762324690
N          11.49789772665501   -7.55473419944756    2.14830318712657
S          12.31482038511307   -6.31040007883671    1.53242447973886
N          11.08023734216567   -5.59459111660187    0.78102459796861
C           8.49763412392204   -4.79079998295567   -0.25607925742945
S           9.86734895378441   -3.73872545194320   -0.58639759084722
C           7.30025737770618   -4.27123690623226   -0.76305140918624
C           7.46998504420692   -3.06659457397183   -1.41302184257552
C           6.66140178787516   -2.05049257129040   -2.09369686162735
C           5.32615601720079   -2.05760484420558   -2.30143784414781
C           4.62089434681448   -0.92887653228863   -3.01335771126791
N           4.71438475473758   -1.03481537452650   -4.46416208959676
C           4.44731189872516   -3.18728610499765   -1.82196963053184
N           4.12627531885190   -3.07238719406175   -0.40513925909572
C           8.82700579024992   -2.64085625550492   -1.39619533768476
C           8.92359646604094   -1.41166520881927   -2.04048448350158
S          10.15188748277169   -0.27750243504058   -2.44766073709562
C           7.62975343161213   -1.01916350695235   -2.47905454022582
C           7.66075193668193    0.18748055352670   -3.14922976449905
C           8.94663930973009    0.73460743950975   -3.21794504442260
C           9.30327564688535    1.95839043421815   -3.82068007498285
C          10.64801908655883    2.40036817643327   -3.82593182287984
C          11.06614581609458    3.64647955506231   -4.42298393399634
N          12.34990773296339    3.98473613566445   -4.38761593579966
C          13.23630678752412    3.19158236499999   -3.80998339770647
C          12.82077299663558    1.96621798514581   -3.21795304079049
N          11.55483337617574    1.60998982775357   -3.24354181119341
C          13.76499803124838    1.11470365860294   -2.59404323796298
N          14.55382033438914    0.44939428942823   -2.09629672347685
C          14.59732158883656    3.57062179882603   -3.78587584255475
N          15.71244456884426    3.83518032043474   -3.74274596944797
C          10.13843716754839    4.52483818508106   -5.04887995447810
C           8.78368413238037    4.07142276720783   -5.04329383213911
C           8.36985646246614    2.82670691297382   -4.44977775756726
N           7.06030774930230    2.63424690982961   -4.57422146562762
S           6.40910283016310    3.88520615415352   -5.35882721767413
N           7.76329813323446    4.73307485603920   -5.57524988421889
C          10.41982936670930    5.75491852315614   -5.64763126187930
C          11.59235285755805    6.46798250037938   -5.82481507933591
C          11.60803172076950    7.72578769271991   -6.47634463637754
C          12.83942328550999    8.30237250847864   -6.57758040158007
C          13.85979356575389    7.51679266769124   -6.00674359301642
S          13.20908033430347    6.03150433220047   -5.33538150022049
C          15.21405971686788    7.79304627559329   -5.93831301191095
C          15.88827416784227    8.94333716100004   -6.43159773597308
C          17.22502356091676    8.93346601949079   -6.22138399401882
C          17.70126825949008    7.76431499013614   -5.54145257612992
S          16.33700758299616    6.68986482104790   -5.19176360997436
C          18.96402516849379    7.46960719747735   -5.19686144326960
H           9.27942997006349  -17.10428226888460    8.76964672527920
H          10.89073467258758  -16.47085400665370    8.14950788755595
H           7.07360825566100  -15.82073062307051    7.99571746095829
H           6.38007991988959  -13.81377147940468    6.53857778723862
H           6.27694931871179  -11.92865197250534    5.16725929927705
H           6.75273243936641   -9.95260014118428    3.61672327726797
H          10.65101691251688   -9.49448635552253    3.11190326214601
H           6.38065286503912   -4.80539460054181   -0.62221944749844
H           5.03359748230532    0.03822201065238   -2.71908609713701
H           3.55786757655249   -0.93817492887465   -2.75559953972085
H           5.68509512499577   -0.99259400231178   -4.75643484057899
H           4.33721255300386   -1.92483968875558   -4.77383377248148
H           4.92457246417718   -4.15562377021529   -1.98372411506188
H           3.50147853617513   -3.18266234634427   -2.37032570556106
H           4.97408663723457   -3.09571180315873    0.15139049339773
H           3.65818237534866   -2.19098405933847   -0.22152448737398
H           6.83540293869627    0.70781373778014   -3.59775194172298
H           9.53684499742754    6.23960835673635   -6.05025742452396
H          10.70133064988617    8.16738513401465   -6.85198259850292
H          13.02437109285213    9.25453209587377   -7.04233556261273
H          15.35636585282063    9.73725144065775   -6.92516630994009
H          17.90279910376420    9.71254828665823   -6.52189121715013
H          19.77026888804534    8.14445440029329   -5.42560340929352
H          19.20732429542562    6.55582018745495   -4.68635312709397
