94
 SCF done       -201.269501029977          0.000925643259
C           4.64961270574077  -17.99418680187855    1.43268647566492
C           5.05632234800510  -16.74752136607117    1.71297847150695
C           5.72385259855266  -16.28442159884021    2.89440228505558
C           6.01846843960928  -14.96404682010169    2.88386145280367
C           5.61003340631863  -14.28520622131358    1.70301951166682
S           4.82776849935076  -15.38655565011228    0.60182021622904
C           5.79225346953091  -12.94549380859915    1.40849681124334
C           6.42491593043830  -11.96556800249062    2.20524559256445
C           6.47118849975952  -10.72707642214988    1.63454842373829
C           5.87935444255395  -10.65637783864448    0.35675177597344
S           5.24800344497183  -12.23554991935523   -0.08950491511194
C           5.73766163813832   -9.64151077055130   -0.57237846008853
C           6.13556986212418   -8.30001634223331   -0.60373588180729
C           5.88018088072983   -7.57956668020693   -1.82271770124823
C           6.32539729656463   -6.22763780564824   -2.05904458263502
N           6.09490921941486   -5.66298184742967   -3.25219299135386
C           5.43059507132266   -6.32499269913787   -4.17715667790472
C           4.94383963070878   -7.63661230204181   -3.92131047575617
N           5.19608721111832   -8.22178913343520   -2.77048383410400
C           4.18696196454798   -8.32791841752967   -4.89847377754392
N           3.57532443039731   -8.85601464698534   -5.71045048438399
C           5.20985106508256   -5.70301640817742   -5.43106143514323
N           5.03315409191066   -5.21155185299463   -6.45077787090144
C           7.00115286128961   -5.47897140832681   -1.05663353393065
C           7.16637141971352   -6.16158551127055    0.17764835355563
C           6.76706707265192   -7.52647300747619    0.40961684313216
N           7.05202473492495   -7.90192032150553    1.65220044033941
S           7.74404342515990   -6.68837149914791    2.45170690118539
N           7.72282301282019   -5.61606978746166    1.25278406622006
C           7.49480174390421   -4.16351781414236   -1.18768428792236
S           8.23353057487194   -3.37688571687326    0.19064890965204
C           8.60503610220322   -1.90394295124155   -0.67537627948189
C           8.17484827869763   -2.02324917855982   -2.00426387076431
C           7.54982499072820   -3.27395968106609   -2.27389256860796
N           7.18866670626846   -3.23531714835242   -3.57326495169551
N           7.52786418712263   -2.07941393078803   -4.14311007002649
C           8.11808603835072   -1.33371442796356   -3.23885862806839
C           9.22115606072508   -0.84983908813055    0.00824089521630
C           9.63026692540170    0.30703990831725   -0.59297092582663
C          10.24166493061345    1.40438297158903    0.06331625880409
C          11.10692915695424    2.30039850695060   -0.62704468169324
C          11.34632491609053    2.23829380360623   -2.07892910896362
O          10.87383317428738    1.49521371738937   -2.89005706807654
S          12.51736937746210    3.51811350233568   -2.54772828014140
C          12.72048830337420    4.08017016048021   -0.86246377338901
O          13.48539207276392    4.94714650566959   -0.56050503824468
C          11.82236495726016    3.30417796818794    0.01966575214794
C          11.72446813448658    3.54819834977103    1.40562264251975
C          10.74201555320813    2.77365338076904    2.05162992453598
C          10.03975353013443    1.75410655490941    1.42281610516513
C           8.98701528384667    1.30745500950354    2.36548801376325
O           8.12181593195411    0.49400121927178    2.25218655130014
O           9.10805276148703    2.06973824757518    3.50413336533495
C          10.12077786418682    2.98495688924364    3.38594374952908
O          10.33729796458368    3.80071422713758    4.22693060838269
C          12.51644578076560    4.53437994141248    2.08672475061884
C          12.95565323360763    4.38894795309851    3.35774734780237
C          13.66524327375848    5.42087297852025    4.02596346786207
C          14.09588957672851    5.33747108221165    5.31502910647412
C          14.71045130083480    6.39735694713681    6.09909613391181
C          15.18918290363290    7.59198112199127    5.63169163300288
C          15.79524236641975    8.57332026276174    6.44525849004047
N          16.29730005922841    9.40776810293037    7.05291100057814
C          15.17828415813648    8.00959505515323    4.28292312997753
N          15.21723607700771    8.42482569202429    3.21363296076099
C          14.75812330169469    5.94896177050999    7.48528585427606
C          14.28612103997095    4.61475165201391    7.55319255921130
C          13.91238285521427    4.15462534136615    6.20201286920128
O          13.55673390415505    3.03879932735472    5.89369515315914
C          14.20630265271110    3.91660368190968    8.73402599194211
C          14.60206299170497    4.56833869200417    9.90629328812951
C          15.06822638085857    5.90333839880559    9.82965036642407
C          15.15558646534557    6.60676212913380    8.63542842608313
S          15.49729472960922    6.52169435438501   11.39543739863227
C          15.05049617141825    5.00092975661422   12.12224583561611
C          14.60401164939209    4.07558404874393   11.23976770693402
Br         15.21480079982541    4.77920250843201   13.97666783176283
H           4.80913042355375  -18.79456050206946    2.13360581317136
H           4.15632115730724  -18.23373366535164    0.50845213653338
H           5.95444828747048  -16.96116481329108    3.69751206215165
H           6.51765077155200  -14.44831609920587    3.68437812488100
H           6.83219372612569  -12.19301267415214    3.17383656650682
H           6.90815199284456   -9.85832246698036    2.08963937517057
H           5.23916188340601   -9.94258207722968   -1.48735407617634
H           6.70041362863960   -3.96056104514090   -4.08007068036065
H           8.47755839486202   -0.35941752663102   -3.49905590893895
H           9.39451601388240   -1.01176598508944    1.06138154307776
H           9.56047848313671    0.36906207620366   -1.66691501278880
H          12.80911041040865    5.40686201171999    1.51760722208743
H          12.77303809781394    3.47746287854321    3.90573696714533
H          13.80872913871811    6.34238012519166    3.47630856601548
H          13.84315482907701    2.90105894321579    8.75294571869600
H          15.51306613162172    7.62277976673230    8.63038020623385
H          14.28698076297182    3.08672416249967   11.51651183205407
