102
 SCF done       -174.232023577593          0.000802591637
C           2.84537225592068   -1.50112767080733    8.19255461047945
C           3.78828053896077   -2.40901179887140    7.90465298780829
C           5.10763472461926   -2.51280706646388    8.45813772722266
C           5.83729837181036   -3.54357850472619    7.97569437375233
C           5.16528216265415   -4.33445536543091    7.00392467577059
S           3.55068240759214   -3.70870940828464    6.72581582426226
C           5.64764658466896   -5.44116285989595    6.34664493109928
C           6.91772058674217   -6.05276896486904    6.47313228826800
C           7.08145397494896   -7.14887938617583    5.68710119160343
C           5.96459309883329   -7.47159771293470    4.86965596483954
S           4.67697557174148   -6.31687808503040    5.17756427425871
C           5.90746904937350   -8.58001879492599    4.06265455567148
C           4.93549209531234   -9.02679814091204    3.14813760610859
S           4.91574873124345  -10.74650826567319    2.81776456218680
C           3.61972530824916  -10.59082766618986    1.65793154897166
C           3.23956963635425   -9.24608722209707    1.55491092738212
C           3.97997725233690   -8.37909349207446    2.36163369462750
C           3.82823054161075   -6.89323151565622    2.25843983432225
C           3.16605003800302   -6.50051263028709    0.94169598443450
C           1.85327126495979   -7.27278097578591    0.82927328547065
N           1.11644836705147   -6.80461912154677   -0.35748767493355
O           0.11933913109541   -6.14463693063694   -0.17770637383307
O           1.54668339600813   -7.10956632126546   -1.44380580963059
C           2.14554759723352   -8.76079658595917    0.65503109146269
C           3.19637761476805  -11.75298038603868    0.98648522790660
C           2.32324892193855  -11.80039484617908   -0.06940744204560
C           1.94844744994458  -12.92459712085856   -0.80501177880557
C           1.13674948216830  -12.79566256800736   -1.91804843194805
C           0.70103026951081  -13.77454102344630   -2.83181955011371
C          -0.04663453963188  -13.28606058703668   -3.87170700971853
C          -0.24337866841968  -11.89568437242011   -3.82747254563493
S           0.52849363495995  -11.22277104960264   -2.41314218076655
C          -0.89241844236513  -11.04981435804048   -4.71625790696515
C          -1.49685865805921  -11.32499512775622   -5.95458476887667
C          -1.98236194970923  -10.21392105243185   -6.58579580206402
C          -1.78336177843821   -8.99780005455641   -5.88870029386999
S          -0.98324642553858   -9.33898789377593   -4.36852163605325
C          -2.23763916437331   -7.77162285176968   -6.32813677415862
C          -2.12173395449986   -6.47409235297009   -5.80857415875694
S          -3.29686107808244   -5.31444648792225   -6.39718736616473
C          -2.65818832510853   -4.03486616657140   -5.39557257220326
C          -1.56718377754400   -4.51105561392604   -4.65514110874601
C          -1.24708343646810   -5.84465950058163   -4.91056527670211
C           0.00636364006659   -6.45981351775382   -4.37716036192816
C           0.99223569641829   -5.38527638993875   -3.93575908113944
C           0.26035930402484   -4.47373155341435   -2.94995432459090
N           1.25690993377550   -3.60210084585708   -2.29479722901554
O           1.38273884838968   -2.46529797526728   -2.68226939124329
O           1.91751649086792   -4.10699483747041   -1.41537422365501
C          -0.80101793279927   -3.66632712396799   -3.68110718315082
C          -3.27400561936670   -2.77793993015088   -5.51763514502961
C          -2.98561013580175   -1.61220265400107   -4.85427083673792
C          -3.60625572071081   -0.37123874060242   -5.05571994737812
C          -4.54742831866668    0.02391035130482   -5.98213230458285
C          -5.06732049832795    1.34000533859046   -6.06850176607928
C          -5.95700106764493    1.53969285403393   -7.07855610478051
C          -6.19996586847170    0.38750629604590   -7.86078965589841
S          -5.25841886158581   -0.95931960163657   -7.24921355919769
C          -7.02796276735955    0.26285578201587   -8.95328161601462
C          -7.83456418220068    1.27332339768549   -9.54308711008034
C          -8.54299149420155    0.86494725594653  -10.62039926599806
C          -8.35030045422167   -0.51273647268216  -10.96821463938649
S          -7.20917680796350   -1.24472791628081   -9.82888473787229
C          -8.91209257762472   -1.19146269425956  -11.97878101006831
H           3.03228477889664   -0.72652319223646    8.91505696147850
H           1.88368844722063   -1.51285456915306    7.71350350886406
H           5.44956673987002   -1.80795446629402    9.19513027754058
H           6.84369432765088   -3.76955344263951    8.28121574973075
H           7.66895517113779   -5.66818429196519    7.13917669779059
H           7.97904059238006   -7.74149535837588    5.65391055613037
H           6.73400953838843   -9.26964117086196    4.19791045740699
H           4.80862597398631   -6.42114662345526    2.33462298330870
H           3.22021495043030   -6.52183650696448    3.08769800148179
H           3.80615817212091   -6.76038091159263    0.09664784333037
H           2.98195284315959   -5.42580957075895    0.91516354138527
H           1.21948310830546   -7.06910849393756    1.69690954867108
H           2.44604303116795   -8.90989373525263   -0.38841724517999
H           1.23559135471479   -9.33887043325442    0.84026320076476
H           3.65219612831670  -12.67728536623023    1.31872147837173
H           1.89611798534411  -10.88083585015031   -0.43000930214106
H           2.31033424107884  -13.90692427703604   -0.53657834683138
H           0.95933236127760  -14.81203152651968   -2.70997530575584
H          -0.45029799607817  -13.89289698467971   -4.66292479107115
H          -1.54991693487238  -12.32161104249931   -6.35523850752647
H          -2.46986318779319  -10.23118010802330   -7.54492603159441
H          -2.86436385529225   -7.83158802895146   -7.21190765121476
H           0.46028082273815   -7.08985174749702   -5.14293964661431
H          -0.21284045789903   -7.09326216720437   -3.51495584444400
H           1.33832911536964   -4.80071504768271   -4.79095271086723
H           1.84572476191684   -5.85948551909821   -3.45105969528986
H          -0.17400204080549   -5.08767682577259   -2.15435065090293
H          -0.31609090986418   -2.84193354589137   -4.21449700214897
H          -1.49450353459222   -3.23594941131794   -2.95355546255894
H          -4.07760725322278   -2.75819160087273   -6.24098783774009
H          -2.21720596057050   -1.60903092044755   -4.09879772228342
H          -3.28269686202824    0.42271192965970   -4.39266016481099
H          -4.75941297167355    2.10417219577751   -5.37599996289961
H          -6.43780921826826    2.47926599655347   -7.28341414834220
H          -7.85925524984686    2.27251064170860   -9.14528796029945
H          -9.20461625188084    1.48875902363692  -11.19487102146603
H          -9.59988502045691   -0.70716093445982  -12.64920852630539
H          -8.69614820943649   -2.22957923823508  -12.15203648011627
