124
 SCF done       -208.390255333496          0.000830094777
C          15.26983001004633  -13.30247345840026    5.15763041957743
C          14.71559310858006  -13.37152206400547    3.94001353629254
C          15.36195963509444  -13.69916582725361    2.70142953109536
C          14.53658592782075  -13.73301418519061    1.63282646486589
C          13.18009960592433  -13.42161014993801    1.93191939640501
S          12.99626702182934  -13.08271597202195    3.64020503121193
C          12.12651768299278  -13.37891892569580    1.05514021932359
C          12.12698748899144  -13.65885947858180   -0.33409907906226
C          10.91208717411556  -13.53805927492786   -0.92350778175685
C           9.86343863300198  -13.12331213258846   -0.05286309309795
S          10.50872104647077  -12.93826393734140    1.57274696387324
C           8.56225128665365  -12.97601480646177   -0.43664134510247
C           7.43166588314887  -12.51337240146080    0.28102463650732
S           5.88211616989264  -13.12057319545535   -0.24452850595902
C           5.03172618874456  -12.21009888170776    0.96649319734715
C           5.92075675394436  -11.45316252372745    1.71269614824976
C           7.26501711275298  -11.60167714542364    1.31364791263679
C           8.33597740830979  -10.70325906628976    1.84884337004837
C           7.71639828645899   -9.39652036432727    2.33924781801343
C           6.67665708948798   -9.73840842181427    3.39573149158923
N           6.16901209421556   -8.52553660379918    4.08351008399579
O           6.90519377202749   -7.57580634773768    4.17642596592240
O           5.04431774566554   -8.57766825368161    4.52924937344770
C           5.49829451004711  -10.50860524908566    2.80002323218108
C           3.61118411537547  -12.35787176643660    0.96995121419519
C           2.72261607358086  -11.83987037630677    1.83399741226999
N           1.35327330978141  -12.05432641214384    1.76423326121305
C           0.66095103203894  -12.60013050108007    0.70450262271048
O           1.11698862244399  -12.86654866004156   -0.38411063513624
C          -0.77835481032334  -12.84814257543348    1.15628287817883
C          -0.80800962675661  -12.21101868700753    2.50422208248447
C           0.48082393921413  -11.78115096981231    2.82755749127857
C           0.74624005052489  -11.17224818534022    4.03821674304203
C          -0.30024696965121  -10.98679842064217    4.93750655451256
C          -1.57972091561984  -11.41938921325028    4.60894241968802
C          -1.84269614172672  -12.03892938771262    3.39634360695181
C          -0.03672928319472  -10.34266073818775    6.26391355158460
C          -0.97412710874169  -14.39244360791040    1.22457911125116
C           0.30053531611431  -14.93561723971069    1.86114582591930
O           0.64006335249790  -14.78039706246272    3.01230365369174
N           1.02949876778126  -15.57226009261955    0.87561256236335
C           0.27178009766335  -15.66855827915744   -0.30002860116336
C          -0.95131665978272  -15.01508630066540   -0.12998069774002
C          -1.87230122219376  -14.98859539390934   -1.15215170114316
C          -1.56423793886742  -15.63380895538732   -2.34186255223116
C          -0.35124542139588  -16.28705837016836   -2.51713031241687
C          -0.02226812289422  -16.95712974555905   -3.81613860553745
C           0.58176882118475  -16.30765898737351   -1.48232337719127
C           2.38425244363212  -15.84197840081029    0.93037680686558
C           3.17205632115275  -15.56734188040429    1.98296254065106
C           4.59024726680901  -15.66910165296521    1.97953532276408
S           5.50246769115484  -16.35833676145308    0.66951762994256
C           7.01500106854476  -15.90078880068078    1.41426022500812
C           6.78805711560856  -15.26993178834375    2.63075900375491
C           5.42980331208417  -15.14824465292647    2.95024665390024
C           4.93121949672676  -14.44895260655271    4.17880835122195
C           6.07158455013546  -14.12376542594416    5.14034834146849
C           7.25788942660606  -13.58285540547601    4.34094415922955
N           8.25906519643933  -13.03682106938354    5.27351908727188
O           8.40080790695010  -11.83229805461398    5.27060566819565
O           8.84558697843278  -13.80485541772459    5.99072767014948
C           7.86476850401596  -14.70063083066534    3.49972090211669
C           8.26702613870431  -16.13998333996968    0.81424008925037
C           8.45667324397939  -16.58748630448178   -0.45979312189954
C           9.69671047064794  -16.82490849932293   -1.07952854727189
C          10.95483950446003  -16.84531371380972   -0.52711344056968
C          12.15251779600174  -17.07690489301168   -1.25304825663333
C          13.28402512243353  -17.09942266353771   -0.49953261674686
C          13.05670717909188  -16.89347992102445    0.88170026250622
S          11.34679017159842  -16.65020718721439    1.17438642880843
C          13.97290051913695  -16.86811902552612    1.90646040383252
C          15.38315607845102  -17.01972126653181    1.81448591687648
C          16.03118395124140  -16.92420098476578    2.99711464607504
C          15.17626881930057  -16.69402572364908    4.12515157813148
S          13.49660063821797  -16.62775808215505    3.57546064698806
C          15.53050794177499  -16.53097728064598    5.40752367842379
H          16.32003824025796  -13.49041727028152    5.29376591142624
H          14.69038901945679  -13.05737596002312    6.02838909017004
H          16.41809437606936  -13.90071460041602    2.67088026871292
H          14.84884405477136  -13.96686630183051    0.63014215805801
H          13.02393924476849  -13.95278407130331   -0.84941534985599
H          10.72087341632531  -13.71852615540509   -1.96662236522808
H           8.34139354635731  -13.32290478869435   -1.43945728371322
H           9.06538084221337  -10.50202889972396    1.06371025844253
H           8.87025842686310  -11.17506335469681    2.67822432725674
H           7.24358659930818   -8.86864832804386    1.50791482729170
H           8.48540354802181   -8.75405737809016    2.76685326876842
H           7.17169831861629  -10.32258537742993    4.18450045940796
H           4.78200620608413   -9.79431240904505    2.37917197418827
H           4.97954926352795  -11.05392101737340    3.59309568057645
H           3.23544421131529  -12.96780316177853    0.16144933376037
H           3.00792737034058  -11.22925559953969    2.67340897927304
H          -1.49749870656613  -12.43114118079905    0.44829397031972
H           1.73516013599534  -10.83310037740811    4.30528286696569
H          -2.38295040888020  -11.27193694266152    5.31524449472841
H          -2.84076066606944  -12.37339049549296    3.15576650427814
H           0.16643330338843  -11.10871958012864    7.01275354028044
H          -0.90039986587237   -9.77124830877022    6.59513725163689
H           0.82606846868708   -9.68291774403812    6.21272502641522
H          -1.86333180077957  -14.61568828768921    1.81606078530513
H          -2.81693942887472  -14.47941834141422   -1.03259053182156
H          -2.28035012764545  -15.62342638514989   -3.14990483373775
H          -0.91027350817393  -17.07400860950364   -4.43141550615153
H           0.41898220541491  -17.93678916031950   -3.64378699901480
H           0.70109914109792  -16.35779304260116   -4.36872739529635
H           1.52211912476062  -16.81760734937038   -1.62395715639187
H           2.80076859864270  -16.22880271956989    0.01173444279636
H           2.73163629114165  -15.17014301646598    2.88353335132537
H           4.18987936647464  -15.06730235922144    4.68859412455739
H           4.42706565851080  -13.52666108087762    3.87235795864259
H           6.38732463381805  -15.02076024267756    5.67606025947800
H           5.73479131045923  -13.38897676762462    5.87513263696119
H           6.93607980943120  -12.76083599552883    3.69638204167319
H           8.27906621648011  -15.46922353274694    4.15958041974404
H           8.67884480862005  -14.30771209395370    2.88801087580408
H           9.12250245762296  -15.90503844835142    1.42799166203598
H           7.57692649651254  -16.75126349535975   -1.07001176342698
H           9.66429735126279  -17.04224076765016   -2.14046322796796
H          12.13397087137998  -17.22183890287450   -2.31948966155395
H          14.27038723410385  -17.27004542501383   -0.89315145680533
H          15.86769926549294  -17.18750666154708    0.86864017152293
H          17.09611886602665  -17.00851801962164    3.12424956912038
H          16.56382591683392  -16.57940142188041    5.70244076388025
H          14.80102453090363  -16.35687834142590    6.17642474877000
