92
 SCF done       -152.437813486089          0.000244410759
C           0.53817536353568    0.38843705908464    5.52015962518512
C           1.32582321534048   -0.58610574370869    5.99509827770671
C           2.03406609674833   -0.61299113079452    7.24268770735679
C           2.74718197788484   -1.74054471930112    7.45651712879365
C           2.66643174537035   -2.69666852344305    6.40605296296414
S           1.63965516457050   -2.09175935877891    5.11728718125793
C           3.26632557935590   -3.93025047272325    6.35302409505775
C           4.09342412453895   -4.53920117575461    7.33028136973551
C           4.51407812738686   -5.78438250901686    6.99569155346817
C           4.05497169961072   -6.25754837295602    5.73271547292470
S           3.06807130328439   -5.00775699738307    4.98244707853238
C           4.32663921181973   -7.50746141691513    5.25187409519115
C           3.92911939659434   -8.14521118253409    4.04396515530523
C           4.20867743346937   -9.53917874056314    3.89777106094938
O           4.86003015675208  -10.10605196883182    4.95241716174282
C           4.82762457427141  -11.50072733822082    5.16448158257053
C           3.81780267298866  -10.20116361216191    2.74462294915100
O           4.12941996284488  -11.54598829885467    2.55197600716821
C           5.25093383685810  -11.74158099948765    1.71583897713399
C           3.11054350803305   -9.52811482851430    1.71327667478509
C           2.88460000833469   -8.15167366214566    1.85821552784874
C           3.28454666474102   -7.48750329545090    2.98618995838181
C           2.62006667466406  -10.30274353559818    0.62369603682660
C           2.15001956757452   -9.91533197863073   -0.60034814939871
C           1.60853913028975  -10.81314235128441   -1.56100139012859
C           1.24292859630966  -10.23745625423543   -2.73624610539237
C           1.49113247062309   -8.84724676850336   -2.79659374084655
S           2.17473760299992   -8.29226943702509   -1.28020251898195
C           1.27124189234008   -8.00427367103678   -3.86567915231023
C           0.67220633253842   -8.32593836792330   -5.10486250487246
C           0.61773032989176   -7.28531849187532   -5.97705061229907
C           1.18520396485862   -6.07179054945595   -5.50042029647509
S           1.75639327510457   -6.32068749358764   -3.85442276155621
C           1.27051535714118   -4.93455778089021   -6.25753194201687
C           1.86789875491467   -3.67470200410929   -5.98805711550474
C           1.83247524335932   -2.68210607504207   -7.01468593650111
O           1.15744315752022   -3.04202786328609   -8.13911058412839
C           1.37118525622778   -2.37302192450318   -9.36490289952692
C           2.44114944821162   -1.44923391276813   -6.81224407208110
O           2.29068414321424   -0.44077810775180   -7.75506130877447
C           1.41592140189725    0.59112046903797   -7.35357142560554
C           3.17833995899113   -1.18637501408762   -5.63488255504737
C           3.13226579247721   -2.14562647355433   -4.60711437550389
C           2.49608230424842   -3.34316720137761   -4.77665047803598
C           3.97533187314371   -0.02104032095371   -5.42522934377562
C           4.58900160229292    0.81020280474547   -6.32162048159617
C           5.46619415362416    1.86744472375998   -5.93529307453439
C           6.08540913277415    2.49742016374856   -6.96288458576070
C           5.73908236414862    1.97957716081073   -8.23760689212730
S           4.55956976508127    0.68987811157322   -8.07211114003853
C           6.20119893339001    2.39090114342139   -9.46295496487247
C           7.15194073201047    3.41401421834793   -9.73549669906269
C           7.42198328109010    3.59281046150932  -11.04720066574716
C           6.70033909557968    2.71782994115822  -11.92645404056677
S           5.65913400193622    1.65725580287319  -10.96266912900465
C           6.76351762604875    2.66614441384909  -13.26400493616467
H           0.37278898248327    1.28640138605386    6.08889875404853
H           0.04907126822048    0.30605793406363    4.56714695803612
H           1.97414231834197    0.21667830466253    7.92481325981356
H           3.33462356343726   -1.92766132993103    8.33811916197984
H           4.34444660446414   -4.04176274681711    8.25002470354394
H           5.14212550625600   -6.39862291803783    7.61718558426779
H           4.91549566717109   -8.12733295776079    5.91486552505012
H           3.83397321885716  -11.91232836746113    4.98049000192110
H           5.09298905088180  -11.63639631809695    6.21413142758110
H           5.55570352124193  -12.02652752333987    4.54241724727416
H           6.15926970445615  -11.32260497310861    2.16528183420911
H           5.10450733801932  -11.28374920683522    0.73197671227780
H           5.36345220853277  -12.81907518740445    1.60455856089488
H           2.35835065676883   -7.61701132950429    1.08478691191345
H           3.09364908326453   -6.43020235479101    3.06541621593763
H           2.60476938344697  -11.37242160513208    0.79977124384338
H           1.50582361225845  -11.86145835128443   -1.34102847087546
H           0.82025172757076  -10.77459552987678   -3.56633782662319
H           0.29505769830451   -9.31083550082127   -5.31440457732545
H           0.19603984854320   -7.34550942218878   -6.96510625347478
H           0.83677819798462   -5.02151424526723   -7.24504487327688
H           1.03506892723904   -3.07092936695171  -10.13345823314262
H           2.42508557053832   -2.13572527343423   -9.51708180150716
H           0.78371313001955   -1.45483462041356   -9.43389937106730
H           1.72690065490612    1.04396431465448   -6.40700943717015
H           0.39147876386580    0.21597467988214   -7.24694623344077
H           1.45325206737971    1.33980410666126   -8.14313927686159
H           3.64344597654259   -1.93520618174106   -3.67953111642054
H           2.49480806843240   -4.05724224029196   -3.97021145626760
H           4.22255872785351    0.17241158345782   -4.38688831125517
H           5.61052579367880    2.11190244875387   -4.89693033202452
H           6.77746785583794    3.31230349585998   -6.84520331154776
H           7.60377161588610    3.98163163079273   -8.94109886307545
H           8.11244937436665    4.31755785763367  -11.44118529670986
H           7.41100351493120    3.33024303528565  -13.80892810604576
H           6.17678575710723    1.96755022318961  -13.83150271600799
