114
 SCF done       -203.848993750053          0.000748823434
C           7.17774441970842    2.43607356600892    3.82604859726788
C           6.12644785108875    2.27434336453064    3.01259172313400
C           5.38661422461477    3.29203367733169    2.31998595280424
C           4.36896643035554    2.82786161550557    1.56466797471589
C           4.21544550366695    1.41140589189554    1.59134674937643
S           5.43068099719598    0.69134517471838    2.63088156837879
C           3.27879590722971    0.66334008677796    0.92806689793949
C           2.25859565886788    1.11017148799951    0.04740035914140
C           1.49292408313197    0.11656715027514   -0.46220174898793
C           1.86081043615027   -1.19526153577023   -0.03947631649151
S           3.20602155115392   -1.08095274277031    1.08665658177336
C           1.21785094609523   -2.34046902521906   -0.40411537520825
C           1.55388524961327   -3.68965802079118   -0.10586289753605
S           0.24919222761923   -4.81806836358054    0.14103546518666
C           1.33822052640795   -6.15242351920308    0.39223774360614
C           2.65102281422939   -5.72262745064794    0.27973221317932
C           2.76844286429373   -4.34733386033664   -0.02545321346798
C           4.07559076750655   -3.72851040769097   -0.41131605260336
N           3.90811623896695   -2.92043355212375   -1.65021305937563
O           3.29803173519299   -3.42498457361903   -2.56117440168492
O           4.43785813437671   -1.83759001673135   -1.67972581141078
C           5.11317446941187   -4.80945083343801   -0.72185942267580
C           5.15643753509943   -5.78536038389202    0.44402590424605
C           3.85248378052800   -6.59006927319689    0.49595155776220
N           3.81204275159583   -7.20539736819696    1.85484981110505
O           3.50696371395795   -6.49837733499877    2.77855944485124
O           4.13571646796290   -8.36791566870650    1.93377735134013
C           0.71259991312435   -7.41255754008135    0.62460034967849
C           1.27388542188326   -8.63993238228975    0.65706403572767
N           0.59711271946122   -9.81188866439966    0.86690026377041
C           1.31877339678090  -10.97314751177868    1.20014004979713
C           0.87183475311896  -11.81999573652303    2.21475656697072
S          -0.64476291828974  -11.51214320798938    3.07606830608616
C          -1.50384815519168  -10.59013500668446    1.83563441793965
C          -2.89082696726396  -10.57629325049884    1.86398076385200
C          -3.59590949234644   -9.87313112629894    0.90604785781773
C          -2.91641419179369   -9.23834010132911   -0.12139708232820
C          -1.53542370115833   -9.25693214417925   -0.15274030372461
C          -0.80882154125861   -9.88140078961905    0.85870357058689
C           1.62765888510365  -12.92253405882956    2.58949102118980
C           2.81565255507763  -13.21140196000090    1.94473793719851
C           3.24024542457046  -12.40339274823940    0.90327237154113
C           2.49668233463582  -11.29821131700950    0.53313781698695
C           0.13115668579884  -13.54346144360613   -0.77485475411075
C          -1.26945068916987  -13.54770862623581   -0.27841141124594
S          -2.45691098959960  -12.58903105527835   -1.08557248935487
C          -3.73629818043896  -13.19789934695875   -0.06874728347042
C          -3.22648229709386  -14.08603568603041    0.86154265391461
C          -1.82893707155262  -14.28294648033315    0.73214190099542
C          -1.06516788790432  -15.21606381690793    1.62238352728054
N          -0.08937838700660  -16.01706952084349    0.84170616753320
O           1.03334751794273  -16.09270098247202    1.27807873385678
O          -0.49246448952726  -16.56708556299287   -0.15270680290020
C          -2.01518159702289  -16.20740617917366    2.29925585732450
C          -3.15308364283559  -15.44614237365974    2.96218403535716
C          -4.04483451248257  -14.78821657621517    1.90735344669347
N          -4.92022955869551  -13.81172691499927    2.61497821803572
O          -4.38133226003564  -12.95758478594072    3.27240085604119
O          -6.11294439898773  -13.94594318989138    2.48798451938868
C          -5.07639530056881  -12.77631558826104   -0.27657516955676
C          -5.40288853777471  -11.72575924474122   -1.07494062942584
C          -6.71029506890081  -11.25395308650559   -1.28521137039933
C          -6.99243493593319  -10.10178400393257   -1.96940753590024
C          -8.27139195134361   -9.54369976470583   -2.23133191655521
C          -8.24344958792881   -8.36528699435722   -2.90609521607908
C          -6.93738590408923   -7.90740374242146   -3.21525315881418
S          -5.74568124206504   -9.05352105221890   -2.63160614560706
C          -6.57208667987107   -6.74634956081356   -3.85126571153516
C          -7.42907903022771   -5.73758910555607   -4.37607923512860
C          -6.78152330520138   -4.69511603175044   -4.94004586118853
C          -5.34981866826102   -4.79462191478980   -4.90377324789748
S          -4.89414731423997   -6.30985680273557   -4.10834987020379
C          -4.45389830384519   -3.91730641394040   -5.37470241588600
H           7.56761539026781    3.41749439824459    4.03087392670842
H           7.66247754533572    1.60062453618400    4.29682110175162
H           5.65585486268709    4.32852014809238    2.42159482608772
H           3.71333536009180    3.44904389849668    0.98045340515401
H           2.13019697429683    2.15237607271377   -0.18324538310967
H           0.67998277917167    0.26299344285527   -1.15127625222289
H           0.28623337514282   -2.20979955484078   -0.94122959536039
H           4.45868073985497   -3.04556143729312    0.35531896370829
H           6.09220935686934   -4.35134699331446   -0.86827395186106
H           4.82846381328095   -5.33263278305948   -1.63837145931408
H           5.26811946339127   -5.22339414905088    1.37488161759686
H           6.00300385210015   -6.46621415535946    0.34436914084923
H           3.89015140415737   -7.41585364287700   -0.22346792730829
H          -0.35802500625710   -7.33607966375119    0.75563188110323
H           2.33637754051625   -8.78791895189395    0.57376694948032
H           0.34325033833764  -12.60623956660746   -1.28401151913563
H          -3.40185179657672  -11.11107089151012    2.64939363564566
H          -4.67301487843358   -9.84088829011358    0.95021633059342
H          -3.45898748641341   -8.72500742722235   -0.89982804682459
H          -1.00499492912623   -8.77328250806018   -0.95835612579053
H           1.28747075024754  -13.53590342028770    3.41002973827599
H           3.39282282765792  -14.07053092705043    2.24522455778658
H           4.15466703169329  -12.62966219339663    0.37807189145903
H           2.83294707143785  -10.67965725853429   -0.28470257038103
H           0.84669423094682  -13.67089866523534    0.03473209158767
H           0.27653874970074  -14.35437800371246   -1.49176075709602
H          -0.48711490791068  -14.66118393722438    2.36967128475792
H          -1.47193185342603  -16.79017993051551    3.04487070825499
H          -2.41274942397023  -16.89015465583089    1.54386020542548
H          -2.74240394761899  -14.66404467053950    3.60624855956227
H          -3.74873442507965  -16.12459259831557    3.57513812339400
H          -4.72060509646471  -15.51723224686432    1.44369714059297
H          -5.86298674804551  -13.31094050800719    0.23659877300833
H          -4.60334786247475  -11.18243789402860   -1.56480843418467
H          -7.53706910689951  -11.81097200114981   -0.86551729332682
H          -9.16971594441926  -10.03922669713225   -1.90730205471363
H          -9.11903398216237   -7.80694074598438   -3.18523773154309
H          -8.49933154412302   -5.82652326885234   -4.31566323345779
H          -7.25975567577764   -3.84226545786352   -5.38818703985349
H          -4.77452936634675   -3.00767884374053   -5.85112457934794
H          -3.39640760962101   -4.08953324754184   -5.29309612935610
