77
 SCF done       -156.145699879713          0.000623607488
C          -0.56274610068979   -4.27096373521511   -4.66878972777213
C           0.49650268307209   -3.83341286890942   -3.97612700087635
C           1.19387587055809   -2.58745207393735   -4.12936681249368
C           2.22890014087583   -2.41764574472100   -3.27885332489242
C           2.43986364607085   -3.50729321109654   -2.38594554431025
S           1.26080300069627   -4.76803614000626   -2.67942925711651
C           3.40129085232007   -3.62186400672705   -1.41156987095078
C           4.40885266511618   -2.68926175040804   -1.05629284343410
C           5.20427409730160   -3.10263733294888   -0.03573221253962
C           4.87471610829283   -4.38491951735032    0.47881425240590
S           3.51095853241482   -5.04761738528065   -0.39488438463738
C           5.49147268717589   -5.04776695083039    1.50831223174853
C           5.07078276099713   -6.31666704653264    1.94634897124484
O           4.03674409964738   -6.92294406566054    1.33460096765597
C           3.80824032098037   -8.11736156531645    1.93700982117802
C           4.72095183692712   -8.29047862133783    2.96623969789597
C           5.53030845822059   -7.14736025357065    2.97460308158461
C           6.65541390514178   -6.84640228407260    3.89051243018605
F           6.41442374966467   -5.77668932595755    4.67906381146623
F           6.94001196680565   -7.86386975129722    4.71148217810513
F           7.79723472759158   -6.55317186526369    3.23372184955222
C           2.76261514650453   -8.95258298940805    1.46792920900921
C           1.99725796816582   -8.62240007750845    0.39798771614601
C           0.94150440761325   -9.41944902988422   -0.13161975439555
C           0.24879674358452   -9.04201276921196   -1.27577200047276
C          -0.77187697950137   -9.79723444496780   -1.85638376752589
C          -1.20593886083342  -11.00677672246748   -1.33413710763392
C          -0.55214489740317  -11.42292016861167   -0.13841218348211
C           0.51448804408253  -10.64724912566910    0.44985775564232
N           0.91482951870805  -11.29430878953623    1.52510295096435
O           0.15936747904129  -12.39186035825402    1.60760631092872
N          -0.72627146545819  -12.48697465148433    0.61759292416523
C          -2.22283180181795  -11.84780199915861   -1.88886283414543
O          -2.61582392329650  -12.90046394143131   -1.15095170430812
C          -3.54491469536446  -13.60174174912698   -1.83376111312492
C          -3.76781552312712  -12.98882657965814   -3.05725788243172
C          -2.92610282017788  -11.86576981700694   -3.09505068903602
C          -2.82967592448617  -10.93825050860581   -4.24934008027673
F          -1.57432527016016  -10.80751534902403   -4.72395443688987
F          -3.57801759166757  -11.34424467402009   -5.28317198337150
F          -3.24248021709221   -9.68352435047253   -3.96467152002037
C          -4.11449990141366  -14.76999059402364   -1.26773861443819
C          -3.79293453605969  -15.18494046499793   -0.00883559263869
C          -4.26006262085933  -16.32632048840902    0.66966320813891
C          -5.03127032999366  -17.36547545533282    0.21151178487157
C          -5.42537970520955  -18.47917426537346    1.00353512227880
C          -6.13967256990834  -19.42496588385614    0.34184339859418
C          -6.36067150123841  -19.12420742765201   -1.02543273548734
S          -5.63658973423336  -17.57489832056471   -1.42126986957407
C          -7.01634585313414  -19.88597490312400   -1.96205150112780
C          -7.63136206132769  -21.15521302966210   -1.76249614295249
C          -8.18600085744163  -21.68625835427693   -2.87344857245722
C          -8.05437076906348  -20.87332514349159   -4.04944256606270
S          -7.18229336745290  -19.38848803166348   -3.63336368441230
C          -8.49354025237702  -21.14237700756268   -5.28595264967677
H          -0.99331247306013   -3.66966877072820   -5.45008855936402
H          -1.01253974240361   -5.22715879510366   -4.47380765757308
H           0.88367419495503   -1.87470206222156   -4.87272785023794
H           2.85817448800592   -1.54576431654576   -3.25334436509739
H           4.51442568249239   -1.74521657287944   -1.56030904227101
H           6.01967888888667   -2.53377894878345    0.37465392262037
H           6.32660365723426   -4.58874274627349    2.01260458363552
H           4.79480211010500   -9.13291845258072    3.62265736603033
H           2.59858878166238   -9.87852841907655    1.99711344861111
H           2.19375606917877   -7.69257327079510   -0.11942224639832
H           0.52167571991675   -8.11025867832723   -1.74958975894042
H          -1.23365672049039   -9.40275061542990   -2.74454574468618
H          -4.44263876687077  -13.30647491906757   -3.82504381092371
H          -4.82404149481652  -15.29537750820391   -1.88626583540222
H          -3.10025319037777  -14.56225270545688    0.54274092762540
H          -3.94922713605373  -16.41686048806031    1.70328094579016
H          -5.15687633210243  -18.53963144921818    2.04385671627898
H          -6.50704031728273  -20.33009494004342    0.79109094913431
H          -7.63536320692273  -21.62841001304902   -0.79642887221658
H          -8.69007537150063  -22.63549034404826   -2.91742389955023
H          -9.01739293603598  -22.05842378605361   -5.49547454673092
H          -8.33981319129089  -20.46036923619074   -6.10208637920316
