88
 SCF done       -170.270846375251          0.000443416514
C          10.79909719923532   -2.07362728279750    4.81743580283337
C          10.93327510650465   -2.96680016329515    3.82836664285267
C          12.14921736849756   -3.48264274944754    3.26645179378354
C          11.97162745056277   -4.37823041091417    2.27082199868802
C          10.60968643062114   -4.64833460503763    1.95925873410842
S           9.55398877291831   -3.70394373021705    2.99705378048591
C          10.12235353793191   -5.50153394675384    1.00206383825378
C          10.83926400993113   -6.33328461132562    0.10600816164159
C          10.05171864352426   -7.05876378551123   -0.72906098896991
C           8.65504487001088   -6.86693988607802   -0.55104502492674
S           8.39706741964018   -5.68206240550416    0.72469171099805
C           7.66968303859003   -7.45073010658745   -1.29914096089021
C           6.27495066255797   -7.34598965433644   -1.14909557736176
C           5.45102427032599   -6.99009931712683   -0.09805630992122
C           4.07954099697239   -6.97334144923623   -0.42541851149843
O           3.31936381256371   -6.61760188338372    0.64650902406785
C           4.22197384408660   -6.38966422642011    1.71718681063312
N           5.54824343160642   -6.77387363879805    1.25820721130008
C           3.75801306657131   -7.31952592799843   -1.71347518885900
S           5.25421810171737   -7.71376433267436   -2.55378922429097
C           2.48139946604254   -7.31866553569522   -2.31795116422529
C           2.21779613785262   -7.67259652312324   -3.59829029947153
C           0.93325417483872   -7.58275817287180   -4.18374392089570
C           0.52394361466212   -7.90184224436292   -5.45807335843872
C          -0.82780936588986   -7.61732371644587   -5.73039503215495
O          -1.14588985971686   -7.92482437932073   -7.01878427484746
C           0.04438919057780   -8.42466350662619   -7.61721428094266
N           1.07161724720054   -8.49725283332628   -6.58390169350540
C          -1.53044170886704   -7.06805416435290   -4.68793888786744
S          -0.44865086392744   -6.92523975256902   -3.30854873689445
C          -2.86537401111392   -6.59802285041296   -4.60652263290223
C          -3.74126743914619   -6.62381330195543   -5.63218368586122
N          -5.00180085838633   -6.10069774174016   -5.50578432144398
C          -5.94928067649778   -6.02743018231360   -6.45398776889334
S          -5.70893041571346   -6.71195818570916   -8.02723709934792
C          -7.29417684574011   -6.15016852382426   -8.49366998373917
N          -7.70169244234544   -6.44011254177834   -9.79616079156528
O          -8.80439869229238   -6.06561452181071  -10.15071899703779
O          -6.90513681705159   -7.05710411647897  -10.48852150515871
C          -7.95322852650130   -5.47829442956343   -7.50408786861820
C          -7.20573934295585   -5.39060674291844   -6.31092212030703
C          -7.61826168213635   -4.74128624642301   -5.11515671078499
C          -8.75459400863547   -4.01260026674176   -4.94235466864071
C          -9.01941700160607   -3.39708296359017   -3.70216450471374
C         -10.09108609286556   -2.59408845907527   -3.41889951350332
C         -10.36577388282373   -1.93669480807721   -2.15845373798177
C          -9.62024603616972   -2.00575522108145   -1.00656372708369
C          -9.94825321985926   -1.33932530866560    0.19183967885216
N         -10.15572202265524   -0.82738515982585    1.19866469643902
C          -8.42714391492094   -2.73735242935539   -0.84233969271872
N          -7.44902308987422   -3.30256520802044   -0.62944737193329
C         -11.59304373747177   -1.16414749219053   -2.32106339088408
C         -12.07224069900437   -1.33884005808051   -3.64253361487300
C         -11.16131989351853   -2.23969947026550   -4.37865003011078
O         -11.28088460217661   -2.59985472907789   -5.53120578783981
C         -13.21186536059285   -0.72790318352731   -4.10485380642843
C         -13.91462603642460    0.09795043841386   -3.22081130659294
C         -13.42968204209618    0.26570872453422   -1.90220752963437
C         -12.27728784505815   -0.35336593604222   -1.43437066979214
S         -14.44717141638976    1.32869350498553   -0.97728288856032
C         -15.49443410431077    1.53133944692709   -2.35650851570956
C         -15.10555256755060    0.83902926690771   -3.45338305608396
Br        -17.00197926043857    2.63869616517759   -2.21767795302243
H          11.66496422888217   -1.64915820565010    5.29395912931776
H           9.83381653608853   -1.75273256321967    5.16375109148765
H          13.10434159141058   -3.15565490306198    3.63763941604255
H          12.77186477564828   -4.86193103519177    1.73892528167691
H          11.91377902720594   -6.36998711744695    0.10919221832952
H          10.42250562964650   -7.74184322712586   -1.47307066422636
H           7.99966919818741   -8.02921106259370   -2.15295236178524
H           3.91807202533877   -7.01141763319673    2.57200621241891
H           4.16904619981686   -5.32775720874278    2.01298671506935
H           6.34836051766694   -6.30682461384376    1.65715855526779
H           1.67332708547126   -6.98301664705652   -1.68005032333466
H           3.01798919634950   -8.03255399513798   -4.23214247638572
H           0.32710460251345   -7.76353368131476   -8.45246264365252
H          -0.16330889592898   -9.42878626134411   -8.01458881065258
H           2.01517934675128   -8.26651671804545   -6.85300159888456
H          -3.15950430619106   -6.17781560978903   -3.65384120436048
H          -3.48381950867782   -7.03967957265512   -6.59381837014885
H          -5.22253709785871   -5.69554769718257   -4.60249913632995
H          -8.93865192579098   -5.07228994595556   -7.64091190212525
H          -6.95603289325654   -4.82150272730483   -4.25988159155103
H          -9.46067986274874   -3.87267451361870   -5.74463144127944
H          -8.29405176788315   -3.57437656462669   -2.91846999801466
H         -13.54992182355579   -0.88061428218063   -5.11783962531016
H         -11.94983964721007   -0.19183661033435   -0.42108664238012
H         -15.63450771503727    0.84981987033587   -4.38888102650819
