100
 SCF done       -165.107547784470          0.000754610516
C          11.95254839266855   -7.26351993419767   10.23241484812156
C          12.42882953248382   -7.85506526309462    9.12851447317438
C          13.77791556721387   -7.84463723733804    8.63959269611028
C          13.96069098238760   -8.53100560438975    7.49017586854412
C          12.78148536125035   -9.13777093394316    6.97403543293423
S          11.41788827036700   -8.79957199323891    8.02188264837801
C          12.66029751002555   -9.88060139580281    5.82433534885976
C          13.67465565934330  -10.22392521771287    4.89712721813181
C          13.22824280725994  -10.94923555971896    3.83951140126653
C          11.83615485209512  -11.23542931192435    3.86215881692738
S          11.11689074652278  -10.53260444548726    5.29832753493017
C          11.17124592024572  -11.88999666812632    2.85713668635437
C           9.81888186965538  -12.25277756875666    2.75203380382391
S           9.21630994518104  -12.62813517060283    1.14583698967410
C           7.58917019935116  -12.93207231542166    1.69638827695168
C           7.53092598969927  -12.79289043660835    3.08278552640701
C           8.77519362197279  -12.40912720201062    3.65523438112948
S           8.69358691105693  -12.35967626161614    5.38733319579194
C           7.02180450670296  -12.82121485079819    5.32922187407459
C           6.53903184933869  -13.00579309662849    4.08271244007085
C           6.61059837724048  -13.26566806939274    0.72806978588261
C           5.28630695636817  -13.39667444808956    0.95936652985243
N           4.39217939672251  -13.74137042807057   -0.01940615979657
C           3.07042615517508  -14.01095988981980    0.15617360105795
S           1.99752449540307  -13.73666488932293   -1.18980407907301
C           0.64044850193690  -14.13708138642983   -0.18267965426344
N          -0.62431696919122  -14.12244783118176   -0.75949422468565
O          -1.57920341390139  -14.39650991178230   -0.04950811935595
O          -0.68739292777208  -13.83354452380161   -1.94695490503957
C           1.00563032906958  -14.45643239940814    1.10061302342030
C           2.39310780749644  -14.42123205963795    1.31092553304404
C           2.98959232342491  -14.86114007099736    2.56027367096143
C           4.13404431845380  -15.55670432477898    2.63729632693149
C           4.82370030777310  -15.98766720539812    3.83413753465320
C           6.00267857632216  -16.73248691637014    3.68017502513574
C           6.71472167867518  -17.12310969291608    4.78622508890395
C           6.28076010414823  -16.76810937347183    6.07461245249523
C           5.11668034036746  -16.03197637107129    6.24098939839902
C           4.39743629020265  -15.65386721927239    5.12508676104161
C           7.21129000780162  -17.31293271099080    7.03955256073676
C           8.21617690310156  -18.01016771971281    6.34741417235959
C           7.98279076259949  -17.94114872601367    4.85606773820184
C           9.14745269017952  -17.24457149249396    4.12915647421911
C           9.37010974699749  -15.81736542894622    4.61184771334653
C           7.77342796543291  -19.34671771211814    4.26104180962990
C           6.65030671555054  -20.11860779673211    4.94383751855227
C           9.20965389734766  -18.66327085373908    7.03267720027527
C           9.22086312905031  -18.64582536683469    8.43748874489581
C           8.22427129814693  -17.92503760358143    9.11020532371428
C           7.22692649912641  -17.26100666293931    8.42602625039086
C          10.24432192559615  -19.40037349246900    9.11780991439026
C          10.35414609456775  -19.59127090249682   10.44841186236446
C          11.35307955007687  -20.39432448706512   11.06506627336384
S          11.36886565543157  -20.57830345444751   12.79902927841169
C          12.74528165723879  -21.64701866843998   12.79200030143780
C          13.17569774902845  -21.84875432190163   11.48843995025627
C          12.38628218899722  -21.14023592965037   10.53727391750501
S          12.93795933274127  -21.41097769325185    8.91263195731877
C          14.19877486645200  -22.45059703774447    9.50919104928074
C          14.21250909560925  -22.59272823157921   10.84900907135779
C          13.20699580261491  -22.14090127292976   14.05439912018966
C          14.22818948176567  -22.97082780247523   14.26824981402006
H          12.60231708571743   -6.69651487990191   10.87516406353675
H          10.91710970357964   -7.33325184124269   10.50927344964054
H          14.55044371662497   -7.32087034238560    9.17404662050341
H          14.90520714958172   -8.62585404891203    6.98424898993193
H          14.69826152731409   -9.92619128735007    5.03773340853494
H          13.85152213734525  -11.29640108901518    3.03386970793588
H          11.76763830154726  -12.11879077909290    1.98152297272824
H           6.49316834579334  -12.93270697925320    6.25574145018570
H           5.52771584435337  -13.30665727012086    3.88957704461481
H           6.98296932480140  -13.40696880495292   -0.27902864644563
H           4.85978129849315  -13.23092103289743    1.93134728939872
H           4.72266098837644  -13.70066159583754   -0.97554257708823
H           0.28708503270600  -14.74279105482369    1.84743850537283
H           2.40566344057261  -14.64679124641277    3.44429786256678
H           4.63702236303030  -15.81902906531455    1.71438301683479
H           6.33785138981121  -16.99265316728164    2.68579764113583
H           4.77401821230279  -15.76000319132149    7.22838026404813
H           3.49146728243888  -15.08142803573221    5.25532064532348
H           8.93536120335302  -17.23376068399401    3.05741605270320
H          10.05651830638545  -17.82932681734697    4.28442167673409
H           8.47706052994835  -15.22037339215843    4.44399389216160
H          10.19789340337959  -15.35993505907325    4.07399316902569
H           9.59932150110755  -15.79977136212817    5.67498197019004
H           8.70660689620552  -19.90682218519931    4.35261611314310
H           7.54796024666495  -19.24517480101031    3.19701089617800
H           6.86548182888014  -20.25515054234289    6.00129561654781
H           6.53815556648826  -21.09891187390455    4.48646053599455
H           5.70613377355938  -19.58588088749757    4.85241298645656
H           9.97894651624843  -19.21077013074016    6.50641671148781
H           8.23095253995559  -17.88848886640736   10.18843390395470
H           6.46517505117540  -16.71714287495625    8.96502938224676
H          10.96833383435704  -19.87753603276057    8.47010845693494
H           9.65083533035962  -19.13924448328076   11.13314147490571
H          14.86296279701049  -22.89822567482191    8.79526802047419
H          14.93064535735313  -23.20224269866357   11.36401581736899
H          12.63610507849204  -21.77983164115060   14.90125708916483
H          14.83212716428959  -23.36727450717902   13.47329842510449
H          14.48671377385462  -23.28052692676279   15.26522103366621
