76
 SCF done       -138.310541675932          0.000431882684
C          12.51939818299847   -6.66269628212176   10.04850496040149
C          12.49506977014571   -6.29799180438316    8.76001430487272
C          13.52193695384428   -5.61412987439336    8.02416758626167
C          13.21615071559265   -5.38048035146082    6.73086201623921
C          11.93093094776813   -5.85661842881527    6.33479162154335
S          11.12202678857316   -6.61667540930260    7.68626212759609
C          11.35664625155644   -5.77103945922570    5.09100934096631
C          11.91341764197641   -5.19821860057668    3.91988008586547
C          11.10174850619082   -5.29291936298613    2.83757314919311
C           9.86239303137148   -5.94669451337746    3.08974515808327
S           9.74751363439101   -6.41954957379220    4.76272122327610
C           8.90224789808260   -6.20469283547238    2.14649041961406
C           7.68599237445765   -6.88269385294288    2.37530258304445
S           7.23983360274377   -7.37199805073351    3.92690062860425
C           6.84414873663413   -7.18655426725624    1.27817478458756
C           5.69373055663520   -7.89935634513659    1.40771311288689
S           5.03583522688953   -8.46899559449193    2.92280462089855
C           3.73971857562411   -9.21620191561464    2.01740002468329
C           3.87285201276835   -9.03236148262576    0.67978224568532
O           4.95865230399761   -8.25709722696204    0.34882621715434
C           3.14956986557586   -9.56437527595576   -0.41871539788016
C           2.16557487603619  -10.50941315619604   -0.36120063072819
C           1.61885949477840  -11.20849501779521   -1.47244000769113
C           0.80873880512972  -12.24773163465426   -1.13833342546520
C           0.63236977681722  -12.41234382787852    0.25508655768826
S           1.48047416447338  -11.14628812376646    1.12308051616079
C           0.04333984525834  -13.45699436746990    0.93112731710707
C          -0.39223373513891  -14.69486237737847    0.39739501667582
C          -0.61165241359205  -15.64126781028161    1.34370108237678
C          -0.38266664305002  -15.20766389082835    2.68271272969109
S          -0.00468514311067  -13.49810889584203    2.67932789081122
C          -0.45684802316317  -16.04112239408301    3.76306067430353
C          -0.37878894684478  -15.79433604199445    5.15744916967893
S          -1.21711125465394  -16.90411678239140    6.10539633421722
C           0.23617605065505  -14.71313747907466    5.85255684656262
C           1.29194000980050  -13.92013892756425    5.55072108606602
S           1.83094068394057  -12.69075093262208    6.69991125930208
C           3.02641445910578  -12.18237781369933    5.56587666556950
C           2.99405753812413  -12.93537641283306    4.43364694244576
O           2.05367675115150  -13.93043571307203    4.44716167610556
C           3.77367162542460  -12.70488708653506    3.27483421864270
C           3.73607542956769  -13.43192242133668    2.12095034331885
C           4.34318520196676  -13.05339823370624    0.89002667999948
C           4.07703106330766  -13.89211248029006   -0.14043171994729
C           3.28328416471542  -15.01281686380852    0.22004220977370
S           2.88569763676688  -14.95055174799702    1.92809149470367
C           2.85302152913587  -16.03027960791287   -0.59315802252112
C           3.07354218137734  -16.16729201014767   -1.99404566548573
C           2.53082936301459  -17.27730574889984   -2.53791434720128
C           1.83702081915874  -18.11776986553713   -1.60301017568332
S           1.92412422356004  -17.38728652515593    0.00997362262151
C           1.21101488344711  -19.27533885148541   -1.85122354850996
H          13.37603356152289   -6.45125913980732   10.66410672747855
H          11.69379592042860   -7.17664971594809   10.50552922922697
H          14.44291254082522   -5.33008529730610    8.50194810777038
H          13.86532381882459   -4.88113646002551    6.03361774245609
H          12.88762392557866   -4.74227725204049    3.90702862617492
H          11.34418096498046   -4.92330236025249    1.85637687000719
H           9.10363702862262   -5.87964410676966    1.13371310169103
H           7.14121228873695   -6.88191797833072    0.28590786922500
H           2.97609484190028   -9.75847900789383    2.53031164622325
H           3.48953930590846   -9.24440628797331   -1.39332393349217
H           1.88630955389025  -10.94361368308173   -2.48012492287349
H           0.34468314597203  -12.90856725890418   -1.84851701324108
H          -0.47256507958379  -14.86056942799293   -0.66209369189856
H          -0.89866171906123  -16.65627671664257    1.13537517365896
H          -0.76709329756047  -17.05292642123131    3.52591820240506
H          -0.13804553262404  -14.58036023101059    6.85964107447931
H           3.67764364127887  -11.36108774595049    5.77752293295154
H           4.40376399711617  -11.82900748640123    3.30762344367366
H           4.92140542579590  -12.14961702975827    0.81452866462596
H           4.42714686997574  -13.74478983100122   -1.14629617621535
H           3.62701796101338  -15.42850914658321   -2.54615950149397
H           2.59188746990459  -17.54777926086893   -3.57717666722600
H           1.18726740381678  -19.68434850275987   -2.84584932277117
H           0.72155796972904  -19.83204610318000   -1.07349178708997
