109
 SCF done       -182.119588723905          0.000659872234
C           6.04213904791010    2.05952921610402    2.73083991865466
C           5.76926785050942    1.43358466966782    1.57816114301290
C           5.69496124576566    2.00442602366027    0.26321322518314
C           5.39981770925943    1.11839383267975   -0.71287552736313
C           5.21834666251371   -0.21725807882094   -0.25329806854292
S           5.43321261636512   -0.30229368467253    1.47899475595995
C           4.91988062269633   -1.32656132533790   -1.01140245683495
C           4.72010216546847   -1.41172276601544   -2.40887997546330
C           4.44489245843904   -2.66849407645846   -2.84941140998920
C           4.41933654544230   -3.66139736801637   -1.83446209908354
S           4.74674111338235   -2.91209899853443   -0.28355013029303
C           4.06926863345382   -4.97390127378198   -2.05676770633356
C           3.99117112265209   -6.06551931218182   -1.17979422678506
S           2.87296369191517   -7.33962158340685   -1.60626344557474
C           3.12455407503434   -8.21754702635818   -0.12909790864973
C           4.13615124410549   -7.60384358398006    0.62424971365480
C           4.63409918485559   -6.39045687327587    0.03123545480214
C           5.72226249957296   -5.74149456315376    0.62602499091245
C           6.28438512060649   -6.23396531425075    1.77833050442413
N           7.26528258283677   -5.41928179018440    2.44702037208349
O           7.98987617303802   -4.73953942213991    1.75361625957542
O           7.24031871728875   -5.41711913331986    3.65833009665087
C           5.82197147166766   -7.45337480799066    2.33767785639516
N           6.54334188499244   -8.12635938149935    3.38886362478353
O           7.74773434649990   -8.00820349632100    3.39689165256031
O           5.89552411283575   -8.82223068154505    4.14090114474957
C           4.77085092164998   -8.12214570778952    1.76436502136641
C           2.32466345088027   -9.34979432358770    0.14734386439684
C           2.05061695855952   -9.83716686851279    1.38568929843342
C           1.24513416156680  -10.96917855657024    1.65064738686030
C           0.84238168605020  -11.41559498809538    2.89516231410236
C           0.03858280328076  -12.55188089661395    2.84724148358876
C          -0.18647571720222  -13.01886604732761    1.56972702635687
S           0.61608834677008  -12.01104742860234    0.40228657314368
C          -0.94790643158489  -14.17379883022068    1.16144015653921
C          -0.76252000637342  -14.73243399984467   -0.11196463220620
C          -1.47083723812636  -15.85207129787775   -0.46999487857150
C          -2.39313197946864  -16.43007540141744    0.41991427736363
C          -2.59733623448937  -15.87442987020140    1.67464140817406
C          -1.87303354375278  -14.75765032621638    2.03735332792152
C          -2.97655010126459  -17.59286026680025   -0.21121738323175
C          -2.40375178009056  -17.74607683377066   -1.48621761742122
C          -1.41122060654219  -16.63854283815963   -1.75857783715841
C          -1.84671420204973  -15.77857670826351   -2.95976698202714
C          -3.24023586648795  -15.18609436464793   -2.78831222141996
C           0.00168643583670  -17.19690101977944   -2.00893045071135
C           0.50810187471751  -18.05930777718638   -0.85905826951464
C          -2.75973077315260  -18.79661210348258   -2.29468136382981
C          -3.71401726223989  -19.72444267348263   -1.84706148889084
C          -4.29864852511258  -19.53583458668350   -0.58556012457871
C          -3.93528902211821  -18.49004894243055    0.23694609477952
C          -4.11473307652987  -20.87085934409476   -2.62600141946896
C          -3.47960285474785  -21.36587857019090   -3.70955382087957
C          -3.87888437464589  -22.52853021753790   -4.43035442126663
C          -3.17258776069747  -23.10947337493183   -5.45134423344274
C          -3.87241008175629  -24.27196256483771   -5.90658905262407
C          -5.09973466555583  -24.34367403820461   -5.07607588333904
C          -5.09242951981444  -23.31531915976339   -4.20475209285763
O          -6.00785191496272  -25.32776316134359   -5.25284858341179
C          -7.13303290596799  -25.29200189191862   -4.40860634022697
C          -3.49900000953730  -25.14845000077387   -6.88045676433075
C          -4.20191707639804  -26.32592511059342   -7.33384244938469
C          -3.47287073437685  -26.90797494472297   -8.30990172396927
C          -2.26169964403424  -26.14274011051154   -8.54179810631364
C          -2.26449762720847  -25.08876612852723   -7.69625958511542
O          -1.35708825790058  -24.09727185044651   -7.53027628194639
C          -0.21995370223979  -24.16197081684975   -8.35627039631538
H           6.23841435818965    3.11707708222489    2.74917400955657
H           6.07372869212276    1.53187123800191    3.66647808340842
H           5.87011247495058    3.05448765882949    0.11041274497524
H           5.30722887666939    1.36991324664735   -1.75441112656079
H           4.78224539213508   -0.54813124356751   -3.04601892112140
H           4.26312967505365   -2.92304775494898   -3.87874757411858
H           3.70020475132016   -5.17593603720170   -3.05634072533656
H           6.14454455775763   -4.84802792072824    0.19737005237298
H           4.49359294775048   -9.08621874731604    2.16021669499437
H           1.84328514767685   -9.81183884752791   -0.70596580855439
H           2.41129352007726   -9.32098261738287    2.26413391284237
H           1.12973899129202  -10.92200728563831    3.80657456260584
H          -0.34780290751043  -13.03451887717709    3.72646133045309
H          -0.04931923766576  -14.28195914059728   -0.78777368998902
H          -3.30946681170952  -16.30798308184415    2.36062499271293
H          -2.03350764806359  -14.31543595212467    3.00830144300467
H          -1.82497311669189  -16.39796298549912   -3.85890266899407
H          -1.12325351658658  -14.97108486560479   -3.09148540160286
H          -3.98116242051262  -15.97425114805763   -2.67381603138603
H          -3.50319777739581  -14.59029727046734   -3.65937104123601
H          -3.28055723519472  -14.54682680882894   -1.90905403689951
H           0.68645087328749  -16.36049073327379   -2.16429631416420
H          -0.01480954348020  -17.78960816814122   -2.92593988388146
H           0.55920641329749  -17.48164559662590    0.06120015572582
H           1.50294379035496  -18.43661223979308   -1.08400012869325
H          -0.15296394219699  -18.90742017109899   -0.69513726392918
H          -2.32050354323213  -18.90618797177276   -3.27437800539953
H          -5.04197778398924  -20.24410928255513   -0.24741120415553
H          -4.38893803934905  -18.37336266174987    1.20999493157114
H          -4.98830420603161  -21.39037665573127   -2.25526098814106
H          -2.57582942920216  -20.89284367329820   -4.07054355909545
H          -2.23698467726744  -22.77747669671573   -5.85393593030500
H          -5.83696209107438  -23.07840483418629   -3.46995168352855
H          -7.74893307598207  -26.14642184559149   -4.68377125778955
H          -7.70283080917393  -24.36795320332762   -4.55014355687807
H          -6.84016338124093  -25.37429177320233   -3.35697797626862
H          -5.14227435754945  -26.64864796394696   -6.93658515558126
H          -3.72141805440497  -27.80207205335475   -8.85320687437854
H          -1.51844942641003  -26.40607238372736   -9.27024336431037
H          -0.49632791815494  -24.10027451084715   -9.41373834401466
H           0.33798875397777  -25.08853289365001   -8.18734365827548
H           0.40114569191680  -23.30813858827131   -8.09058232631766
