120
 SCF done       -202.882936625244          0.000684396339
C          12.71631903497646   -9.83303615963006  -12.11584719953654
C          12.21766564382600   -9.31334294082473  -10.98591347087255
C          12.70439952624321   -8.17813287143266  -10.25434092122771
C          11.99442186360009   -7.88564481000088   -9.14303588969588
C          10.89508676925199   -8.75799109543276   -8.90002202555701
S          10.79879315227991   -9.97469404764728  -10.15569633504735
C           9.99967487093262   -8.70221930294261   -7.85935086013699
C           9.97994297108304   -7.78003827866203   -6.78014927514490
C           8.94799634872134   -7.97682717132223   -5.92348824703149
C           8.10014034575407   -9.07378252948958   -6.25756614740340
S           8.68364626907083   -9.85150423543554   -7.70233002541786
C           6.94565827791028   -9.36412871100850   -5.57450125079017
C           5.99430251899309  -10.38214116711982   -5.75453033464318
O           4.77687321441229  -10.14040606787303   -5.20151154162165
C           3.95731821093467  -11.18081723484976   -5.49246377888482
C           4.64912282968000  -12.11845128379731   -6.23339217148496
C           5.96436788757564  -11.63734620498280   -6.39728787972565
C           7.08592717144544  -12.39009277981638   -6.93405531529760
O           8.24428415593087  -12.09831173957570   -6.69061094348353
C           6.73027037693122  -13.59277667036887   -7.77542653264210
C           2.61649407102785  -11.19923782408371   -5.03782051863829
C           2.05766045006847  -10.21767209596636   -4.28182157725455
C           0.73691332911904  -10.22990303563252   -3.79980847737592
S          -0.39908883243856  -11.51010491748609   -4.12855433188823
C          -1.67156354408484  -10.78644641943239   -3.18644241449586
C          -1.21808691025407   -9.57670719731266   -2.63873975554803
C           0.12852714124638   -9.26266076213401   -2.99102597618500
N           0.70908134327530   -8.12666968966706   -2.56162259150353
C          -0.01042481419089   -7.32320545934613   -1.81467024383758
C           0.62253716262114   -6.04715434155524   -1.35174992345046
C           1.96134791063087   -5.76332542540367   -2.04271014164293
O           2.94450725832333   -6.71850061751575   -1.75243742055823
C          -1.35116101250569   -7.65766279908629   -1.44262120652311
C          -2.16173693176284   -6.77141752118608   -0.53878410275764
N          -1.48530110209558   -6.61045184078243    0.74364452713769
N          -1.93407399699807   -8.75894053508707   -1.84666094404401
C          -2.93921567700025  -11.36626962210179   -3.01425356645045
C          -3.34993706495731  -12.50629691224822   -3.64005319329371
C          -4.59326987664705  -13.16165679333675   -3.48214389489598
C          -5.53796312535141  -12.87564066016958   -2.54417528399413
C          -6.75256182710006  -13.58775721322576   -2.42137460506897
O          -7.59437108502531  -13.30219078808904   -1.38966046704343
C          -8.67557961081597  -14.12001260392339   -1.47082331235885
C          -8.53358878187098  -14.94245325135327   -2.58192285573683
C          -7.30948478504481  -14.61107942204292   -3.18830113518471
O          -6.78788922944510  -15.18065261196949   -4.29900303150785
O          -9.36850431169298  -15.91083157536653   -3.05706736475585
C          -9.71667000566764  -14.08262886294955   -0.50596179406765
C          -9.74099294247018  -13.27539864610219    0.57980354450956
C         -10.79796420090487  -13.29833201861478    1.53392722153926
C         -10.80432073681638  -12.50928340005292    2.62348343564307
N         -11.77864283186658  -12.48374501412179    3.60416962042603
C         -12.87266456786880  -13.32092913475446    3.68432692442833
O         -13.17838412914186  -14.17312677105114    2.88175026185423
C         -13.61139862692002  -13.01437750075222    4.98502070726205
C         -12.83292575893893  -11.87049834315408    5.54242133350672
C         -11.74621953033381  -11.61414276840629    4.70329462087140
C         -10.84068343736813  -10.61630324191841    5.00059581927599
C         -11.02468175486861   -9.86644767146034    6.16077760293079
C         -12.10852105800131  -10.12705550761104    6.98796326364018
C         -13.01812960305520  -11.13157580887299    6.68815549164382
C         -10.03608864834319   -8.79361412858244    6.50348835648664
C         -13.55117000149248  -14.27046197390061    5.88503257285677
C         -12.11936057585860  -14.82127437597625    5.87131110980276
O         -11.11068136472012  -14.24950004227505    6.21047499118896
N         -12.18114932232057  -16.08728829382865    5.37305524809650
C         -13.47606465176688  -16.46457554841136    5.04333136969238
C         -14.34926718516391  -15.41772349432145    5.34931036492514
C         -15.69832029487451  -15.56194273033661    5.11793413830620
C         -16.15747899391264  -16.75931712624680    4.58584204544737
C         -15.29064250153283  -17.80150931251767    4.27990949351774
C         -15.81418930297290  -19.06991935095422    3.67748952348032
C         -13.92505470940400  -17.65472683839683    4.51321017326849
H          13.58174561544261   -9.39951609448245  -12.58532324731935
H          12.27333091876332  -10.69142481664321  -12.58633758919798
H          13.56630675441078   -7.63322923868806  -10.59686406127132
H          12.21686632219326   -7.06991563266104   -8.47814561103156
H          10.72231012964167   -7.00983998573925   -6.67073902805921
H           8.75740137809350   -7.37728565169003   -5.05049510218205
H           6.66610681817732   -8.65434077087709   -4.80422163279467
H           4.25366132041881  -13.05064020577509   -6.58050876957571
H           5.98882513094477  -13.32864462456956   -8.52504806361718
H           6.31890691141640  -14.37381312173291   -7.13856921184924
H           7.62803602973500  -13.96984622961404   -8.25803324501535
H           2.03275237344350  -12.06407263581327   -5.32000600675850
H           2.64935034185205   -9.35587053153167   -4.00521063709463
H           0.76495696564932   -6.11205198429849   -0.27017634962710
H          -0.06181706680329   -5.21697513929536   -1.53668899483723
H           2.35553866303677   -4.80462714066131   -1.69528119402754
H           1.79690320289477   -5.70152170811976   -3.12929927386737
H           2.58108636611450   -7.56923758893319   -2.04450545818738
H          -3.16644964976686   -7.21474510793916   -0.45894946156143
H          -2.25861839011307   -5.77800193773640   -0.99005790307624
H          -1.40050607626525   -7.51160466784572    1.20297734400927
H          -2.02833413505769   -6.00544693830359    1.34967584503684
H          -3.59447698534961  -10.82569717415476   -2.34654640876048
H          -2.65865520043950  -12.95955927226519   -4.34091675173048
H          -4.79146899666465  -13.98382486326173   -4.15410968976411
H          -5.38554228871782  -12.09322599771544   -1.81561160505756
H          -7.41374352542282  -15.85061029202834   -4.60528666867874
H         -10.14764927810935  -15.96432782815121   -2.49379277346346
H         -10.53542067088176  -14.77299466146367   -0.66703286831942
H          -8.92118763761247  -12.58914674258384    0.73882934115346
H         -11.60985852685159  -13.98748669918842    1.36197365548843
H          -9.99107580367417  -11.82004488774099    2.80011741932626
H         -14.65905810139888  -12.77362034258815    4.78536318950430
H          -9.99352431441202  -10.40497748594971    4.36655800346991
H         -12.24282319262818   -9.54138711387962    7.88511772634321
H         -13.85401036458114  -11.32667796783253    7.34339871935786
H          -9.88399272273579   -8.12678271135925    5.65627486911133
H          -9.07400996984945   -9.23971536267190    6.75373256748456
H         -10.37476777890033   -8.20793385350770    7.35376820351419
H         -13.83957994295560  -13.98757309612209    6.90112688834514
H         -11.36445246141670  -16.65417438599951    5.20813816616475
H         -16.39045993442238  -14.76436435821067    5.34415993787455
H         -17.21395772902859  -16.88373522947747    4.39962142052871
H         -16.83723639804819  -19.25755900341149    3.99431960714259
H         -15.19515156942996  -19.91872014844378    3.95853817304324
H         -15.80679032138953  -18.99248419317820    2.58985681801394
H         -13.23830705921927  -18.45406943281434    4.27805622512214
