94
 SCF done       -155.066538281081          0.000571187590
C          12.11029809130476   -7.39499138659365   -1.72191039463497
C          10.83118221065975   -7.20379549519116   -1.37588777885262
C          10.10727222225386   -7.83054634331801   -0.30507418287805
C           8.81875728301959   -7.44440488602790   -0.19918563753317
C           8.40994638011031   -6.48453330148328   -1.17091369575894
S           9.75316582036578   -6.08672248207015   -2.22847133980034
C           7.16816764382398   -5.92711912215189   -1.32021254138107
C           5.99982318911961   -6.17417658287103   -0.54929659450256
C           4.90906820544967   -5.49168980619999   -0.96579134204375
C           5.12470592903705   -4.64496216391422   -2.09940513608911
S           6.81145446376367   -4.77611411742602   -2.59786090408299
C           4.17596158999376   -3.84007762531579   -2.64426570247234
C           4.28038421449431   -2.95186824406260   -3.77739020651294
C           5.22703626297173   -3.16760903182816   -4.78327125603555
C           5.33980368058668   -2.32634772667337   -5.87526634969745
C           6.38933200613541   -2.57830713652618   -6.92559041493810
N           5.96719345376137   -2.06722665814993   -8.22069050633762
C           4.47858525343454   -1.24160447403947   -5.98270064044436
C           3.52266568335382   -1.01991487763383   -5.00823663745914
C           3.40365991451073   -1.85537497667543   -3.90966490471046
C           2.41305337265899   -1.50982204678759   -2.82478569462827
N           3.07857656428070   -1.09007900449154   -1.59758053199580
C           3.74602815899676    0.10134168269130   -1.55994965932842
S           5.17670684723434    0.26665884599493   -0.57450283076298
C           5.37462351106475    1.96814719128676   -0.94387656791159
C           4.36342970733520    2.36653831169910   -1.81493915789340
C           3.45937940101497    1.30399413525265   -2.14974129742343
S           2.16944031078496    1.83240051198798   -3.20697306246664
C           2.85388136981258    3.43508716335804   -3.17978956786308
N           2.19141362896583    4.41842233874040   -3.92193541025869
O           2.65272385747366    5.54883443289015   -3.91347805921815
O           1.19163156929928    4.06774122026119   -4.53176042283981
C           3.98236583224770    3.58119111985068   -2.42272422763055
C           6.46227025641104    2.66143406599131   -0.35422903530128
C           6.89193909296984    3.89792698023838   -0.68321523596551
C           8.01288070737727    4.56695872424968   -0.04774281695249
C           8.30976881259449    4.33164322422955    1.29563824454849
C           9.35286695822823    4.97946411415282    1.93353067995154
C           9.64398741030860    4.70367592548811    3.38580183305024
N           8.43556130294597    4.31731234770923    4.09810948410804
C          10.12655170900783    5.88051284393903    1.21275226160595
C           9.85844493716769    6.11200290384253   -0.12435929629214
C           8.81085933946935    5.47344780605819   -0.76823107401383
C           8.56773008287385    5.72774990448026   -2.23054981290692
N           8.61186406681095    4.48717787062525   -2.97667963967303
C           8.39752837181571    4.36711401311288   -4.30357617132987
C           8.29186397333194    5.33832459907389   -5.25087545020935
C           8.09259998653198    5.08638921937959   -6.63839145014843
C           8.03271660856612    6.19532067851379   -7.41444860304007
C           8.18444465030165    7.41486805411574   -6.70308786178036
S           8.39441126458914    7.09035989472269   -4.99523627494066
C           8.18825351277893    8.69119796407854   -7.20617441508762
C           8.04010095015521    9.09105336682472   -8.56126858007959
C           8.09015888715705   10.42728641178685   -8.76056130147999
C           8.28312958541462   11.20052563934601   -7.56797621029534
S           8.39829896895793   10.10665632735317   -6.18134123058097
C           8.36879527793851   12.53379596259454   -7.45819549937327
H          12.72999094810511   -8.08476105460759   -1.17662361673442
H          12.55675469966600   -6.87256333533247   -2.54789393657934
H          10.59066723183384   -8.54628355911758    0.33612129715234
H           8.13352210951743   -7.81375738440805    0.54325704161398
H           6.00857586760338   -6.84916799421299    0.28774225253194
H           3.93885356086569   -5.55720242330970   -0.50428036561033
H           3.21118891251558   -3.87984570153678   -2.15281569876282
H           5.87147123644911   -4.03067424109707   -4.72157584343947
H           6.63652159288692   -3.65387082465424   -6.93386124740598
H           7.30091466579261   -2.03764807726662   -6.64304478687869
H           5.13885917971755   -2.56084040678382   -8.53740102440156
H           6.69728243166878   -2.20806132445211   -8.90977749546763
H           4.56473591824582   -0.58413308420616   -6.83273075406251
H           2.85305654773575   -0.17754645368577   -5.10303608883015
H           1.77660732054501   -2.36164117346392   -2.57159809105710
H           1.76764437463927   -0.69478193114380   -3.15634557669048
H           3.58325153445139   -1.84051964497603   -1.14226107557988
H           4.47322376443670    4.53029336516788   -2.31884593948734
H           7.00565156750357    2.09729555698411    0.39288394085722
H           6.39959324332224    4.43422434710359   -1.47943832558341
H           7.69810673482861    3.65554520596885    1.87140774108240
H          10.15003427685860    5.58266952158937    3.82169611130507
H          10.34282168041780    3.86019716240310    3.44932058764293
H           7.76510422241106    5.07926553752996    4.08380617153664
H           8.64954614574875    4.10782955693011    5.06660038976893
H          10.94173322876015    6.39965320243354    1.69528098491539
H          10.47215383374805    6.80775469175958   -0.67763128351058
H           9.33339468687469    6.40612243827841   -2.61793424636465
H           7.59479395032706    6.22062484479427   -2.37420529786875
H           8.56192196340398    3.64743873433708   -2.42208203386967
H           8.33381964139039    3.34329953428955   -4.65081398798968
H           7.99828900728105    4.08008629620452   -7.00845694466180
H           7.88329655103794    6.18094141038061   -8.47900445318754
H           7.90039192701384    8.36701217254090   -9.34500484951088
H           7.99685553353708   10.91088320167523   -9.71698214107831
H           8.29105455746951   13.16098091314721   -8.32859524587732
H           8.51199100832607   13.01579261431981   -6.50854605532449
