87
 SCF done       -185.781569648812          0.000644050648
C          -2.20617859221563    4.45341508783431  -15.91642073189402
C          -2.21619741075217    4.43401025387205  -14.57775131978459
C          -2.96472361979432    5.28216254834361  -13.69251040623704
C          -2.76828119436100    5.03097119787115  -12.38133680438759
C          -1.85435302876477    3.96758274690615  -12.11865836739578
S          -1.25245583552970    3.29819939090423  -13.61746720173385
C          -1.46654925922821    3.49407784125032  -10.88931091531840
C          -1.87352494973069    3.95131933609335   -9.61029564686805
C          -1.31257993127417    3.27159178489044   -8.57878761564910
C          -0.42799851847167    2.23066870052738   -8.97477283411065
S          -0.33266431278065    2.16111068700523  -10.72090834336687
C           0.23681020219437    1.39457710929131   -8.11675399179812
C           1.10248782636298    0.33998126797922   -8.44475550882884
C           1.72444974238648   -0.50242749937444   -7.51163138229145
C           1.70914355130782   -0.22378715365422   -6.14952046787142
N           1.76796084032391    0.08813746459454   -5.04276412301969
C           2.51990981318186   -1.50334597290661   -8.12675578552517
C           2.54691189943909   -1.35452329079719   -9.50823576120436
S           1.54160362719204   -0.07854861119860  -10.08930978451482
S           3.62083178720279   -2.43420905454801  -10.33647363073406
C           4.03058186316562   -3.12086986460973   -8.79976497919260
C           3.35228433603354   -2.57933066834600   -7.71696089838307
C           3.68949143401938   -3.24317597068016   -6.50264732651772
C           3.07799229419745   -3.02636918634139   -5.25672820295901
N           2.57071877303556   -2.90050993096017   -4.23630016007554
C           4.65064198976482   -4.20815092143646   -6.69063654154739
S           5.14709750960623   -4.35750081858691   -8.37138601059360
N           5.22351679896082   -5.01687134119756   -5.71482191749261
C           6.58924568346848   -5.16821847605724   -5.71593731754129
S           7.31852433752942   -6.74071121057010   -5.70766048265589
C           8.88031095772689   -6.00631701875766   -5.86894749213170
N          10.00823337065507   -6.83802101210899   -5.88977645849973
O          11.09405414571968   -6.30693083734792   -6.02597616116816
O           9.81327117770763   -8.03373839335288   -5.76951035154602
C           8.82971181083307   -4.64046840738815   -5.93553027396931
C           7.52051788965914   -4.13416141142177   -5.81683136367532
C           7.24017387373669   -2.71882611540655   -5.73743379743721
C           6.20990068467628   -2.17929259696980   -5.05921177903592
C           5.88435799061173   -0.78975714234826   -4.98191268612920
S           4.55883974208376   -0.28235962858402   -3.99730969104498
C           4.77089835297576    1.36943161625819   -4.45493616634117
C           3.91455119094411    2.47052375764935   -3.94151746147152
O           4.33076486830764    3.59931917032775   -3.89868892957507
O           2.69682382662638    2.14603502808617   -3.53594603103277
C           5.83397504273510    1.52885884308658   -5.30676968442138
C           6.45718758726433    0.30961678643553   -5.61699084994859
O           7.46935004654252    0.10759700683434   -6.50649526223347
C           8.29232330164766    1.05224443460354   -6.92538811067469
C           9.19496749543230    0.78601564748619   -7.90601647431219
C          10.36700176945585    1.65960660802391   -8.15066634693992
O          10.53233226507545    2.78712449944123   -7.74884594714948
C          11.29998542164936    0.82586371762181   -8.94011403269139
C          12.56706068505864    1.11800086029970   -9.35459039405692
C          13.30115066786075    0.14179111540951  -10.06628449240472
C          12.70619897284652   -1.12555029868908  -10.33506804224930
C          13.44905685280652   -2.09856705169127  -11.03355607507242
C          14.72171481951971   -1.82493751795677  -11.44999494993518
C          15.30786843107716   -0.57000060995692  -11.18739031109851
C          14.61374564993705    0.39345339020876  -10.50997185059483
F          16.55555726540779   -0.32876228930470  -11.60866666867920
F          15.42577053132885   -2.74814431620089  -12.11547420414300
C          11.38741217884773   -1.39655814541948   -9.90530990668198
C          10.69441056308336   -0.43376925413713   -9.22043439048370
C           9.33700436885576   -0.42457711844840   -8.68977664175224
C           8.34023304505832   -1.31345619567541   -8.99698291295971
C           6.97910661097206   -1.10102384966276   -8.70076110642293
N           5.85001141009675   -0.95694253589065   -8.54690627080243
C           8.52840486388245   -2.51419110789302   -9.71105593938432
N           8.61151148829527   -3.52698373828276  -10.24516886508517
H          -2.80671273115359    5.16149734962621  -16.45987271454484
H          -1.60429818784428    3.77076233773814  -16.48790133389356
H          -3.61678056262681    6.04267474661832  -14.08379566751261
H          -3.24612252942553    5.56779340869011  -11.58142083064160
H          -2.56536967124309    4.76545750342481   -9.49218808601135
H          -1.49823757483394    3.47363078840830   -7.53895772961939
H           0.07232168884522    1.54976015382441   -7.05748352938355
H           4.68402734698420   -5.81528930807976   -5.40237919437343
H           9.71177084625667   -4.03261889933450   -6.02673890241805
H           7.96765012307436   -2.08242287954360   -6.21673670143240
H           5.55223658180086   -2.82350845722348   -4.49203623463026
H           2.38698295068827    1.25617596227017   -3.82885280108319
H           6.10864521733483    2.48828156086578   -5.70632534881223
H           8.30911215928405    2.01616968903132   -6.42697000616641
H          13.00617484921516    2.08020637555924   -9.13968317214387
H          13.01520022774323   -3.06393148471767  -11.24265788209114
H          15.07778708351476    1.34774926110469  -10.31595037993709
H          10.95963330873855   -2.36393944322134  -10.11758665267966
