93
 SCF done       -179.283542203071          0.000634488798
C          -1.73299699117027   -2.15894358208397   -5.06923074068822
C          -0.59233406584836   -1.91024186209812   -4.41222464554242
C           0.33979566264522   -0.84207085305626   -4.63882400058215
C           1.40859895979651   -0.84912285270515   -3.81272098750876
C           1.41197645642302   -1.91533240737476   -2.86896963840264
S          -0.00990223189235   -2.91620713002920   -3.07614760236750
C           2.35752433162476   -2.18205425152070   -1.90807503032108
C           3.54686684466746   -1.46917004830823   -1.61881142155582
C           4.26869472352108   -1.99681743435980   -0.59623782827428
C           3.69870078300170   -3.15921938632055   -0.01091406499947
S           2.19745860080397   -3.55469117731380   -0.82466705393668
C           4.22918508318319   -3.86728375286192    1.03669025938117
C           3.69467916259417   -5.01352934831456    1.64596733271499
S           2.20498709882594   -5.74737479203577    1.11638361790163
C           2.30785201950406   -6.97225237162832    2.35305900571809
C           3.44685835650844   -6.80029072436061    3.13205668026318
C           4.22943732485574   -5.71493591208008    2.72991042416913
C           5.50843999466737   -5.33871297045384    3.41291042493445
C           6.04164484878364   -6.48987415776991    4.25825897632975
S           6.85541535416623   -7.75127769082050    3.19713561309324
C           4.93674487831396   -7.09290922938640    5.11645142442718
C           3.82759714994099   -7.70522128087727    4.26341050162310
C           1.31419245282988   -7.97462175308246    2.47664951242997
C           0.26508573890270   -8.09608226997803    1.63460649190121
N          -0.69413778556036   -9.05955292453496    1.78473542442273
C          -1.73990761672184   -9.27044427948553    0.96588499822749
S          -1.95190090959909   -8.34052155037697   -0.48333901270680
C          -3.38840956207941   -9.25947551026316   -0.84623551258704
N          -4.08423489800957   -8.93817308697774   -2.00720422778345
O          -5.08932494578727   -9.58112333267264   -2.26683580156543
O          -3.63401689646408   -8.02672297821521   -2.68706555350883
C          -3.67651782849139  -10.21408968479924    0.09159867976548
C          -2.75039586590845  -10.24108442355369    1.14870327984210
C          -2.79294819113869  -11.09133403705787    2.29464572613352
C          -3.68440087727582  -12.08042394762076    2.52900125500802
C          -3.70075455678149  -12.88633389258094    3.70200479178226
C          -2.84882582546288  -12.90790525707779    4.80447551073516
C          -1.68653948836981  -12.13559367138598    4.90818773507796
N          -0.71796711255166  -11.51792086110388    4.95941875513995
C          -3.25354145799897  -13.85707634471628    5.78680159291276
C          -4.38746203187379  -14.55218281585288    5.38662366761665
S          -4.99228855912841  -14.05908846943336    3.85425394092573
S          -4.94804411976212  -15.75900293165734    6.49937758189029
C          -3.63723160066203  -15.31782860557112    7.54461686751442
C          -2.81847915187358  -14.30007055534645    7.06987003905674
C          -1.80453519869782  -13.97688141806526    8.01620022232222
C          -0.91279133207966  -12.89676308810872    7.93320289481723
N          -0.19216834907701  -12.00392018726014    7.93343874880401
C          -1.87113830510533  -14.76917584772073    9.14994612959056
S          -3.19017901156622  -15.90765507456205    9.09758150202762
C          -1.00371137413179  -14.72553238014848   10.28872688433069
S          -1.64671843461751  -14.94921281305230   11.89568709778566
C          -0.08992801687720  -14.76514052736444   12.59384632055442
C           0.86691562606297  -14.54562735884702   11.65464969530120
C           0.35196848359900  -14.52309912052481   10.33350469476524
C           1.33636530961719  -14.45683599397862    9.21261432843086
C           2.45327323729343  -15.45136775997618    9.53802727404461
N           1.87179266253833  -16.84024337922408    9.48708970813261
O           0.98993963499733  -17.02949291278166    8.69173446937383
O           2.34040076883514  -17.67168735617914   10.22268241171160
C           3.12846452503674  -15.21454231596059   10.88684936523076
N           4.50110959337919  -14.64604433706484   10.69293154744963
O           5.08814486667844  -14.94929074262820    9.68435714194189
O           4.92750615680907  -13.94789737854915   11.57366420413767
C           2.33037106256623  -14.32973924415791   11.85495596227724
H          -2.05247145275760   -1.52281438932924   -5.87588348898452
H          -2.35970501484307   -2.99433818240884   -4.81609048312007
H           0.16459156068104   -0.11701312937868   -5.41380279246075
H           2.20405985931794   -0.12556294256976   -3.84186571394938
H           3.83191360638841   -0.59173600840734   -2.17115417037088
H           5.19806838553540   -1.59208786197716   -0.23511513372561
H           5.15961465404599   -3.49511222756683    1.44438794519169
H           5.33101544975211   -4.47550876194866    4.06469970372006
H           6.26106507503526   -5.04547575394555    2.67701977648450
H           6.85705460716520   -6.13739341844477    4.89502004869406
H           5.87764405013834   -7.82448687971605    2.29759478346232
H           4.52380462216504   -6.29477009328810    5.73877894105239
H           5.35304929112322   -7.85624131143945    5.77527968341490
H           2.95809987562918   -7.90982414993047    4.89104039586841
H           4.16688034718777   -8.66391918433012    3.85744449943474
H           1.42047825465856   -8.67199360175574    3.29681995132794
H           0.13443373377951   -7.42929622323806    0.79488698549869
H          -0.59727925134052   -9.66801374411376    2.59122590680009
H          -4.53493394854359  -10.85407761418814    0.00586586792556
H          -2.04316099960615  -10.90806774974951    3.04711207890376
H          -4.45920485182934  -12.30023590685059    1.80886934792577
H           0.02356960321433  -14.82447707258171   13.65760755902101
H           1.74954991434188  -13.44993918710044    9.11783542714902
H           0.87766428981808  -14.71988901812364    8.26015826723896
H           3.22257329790172  -15.43934235007857    8.75161688733031
H           3.30165334068658  -16.20103154536732   11.34579091196931
H           2.56117479582927  -13.27980530621907   11.64809899085031
H           2.62075174351753  -14.53332075168113   12.88471023136159
