98
 SCF done       -158.930086858829          0.000453643712
C          12.24452182181072   -3.47250435603859    4.75875976836681
C          10.96698889501621   -3.17117001417491    4.49581224567119
C          10.16888907061316   -2.12712337645779    5.07466323307438
C           8.90254344382932   -2.06779799018356    4.61303434266977
C           8.58011590540876   -3.05975592404616    3.64232199366896
S           9.98516644741966   -4.06045717867921    3.32200376067257
C           7.37830824604658   -3.26192047991702    3.02187843113351
C           6.19145642973506   -2.48843304063303    3.14408579031484
C           5.15777688853243   -2.94607316698681    2.40442984491789
C           5.42051406253768   -4.15873724278611    1.68640932167216
S           7.11301857641783   -4.59372606900500    1.90990833383188
C           4.48995382571758   -4.81685374522594    0.95517914910196
C           4.45643492840995   -6.14171896307272    0.35262265086206
C           3.92042009256078   -6.24180251408430   -0.93229920468838
C           3.74102772691360   -7.47812068343389   -1.54232126666093
S           3.16665907026797   -7.38987863357877   -3.19681134076902
C           2.78895219823343   -5.60559697501591   -3.00551869072285
C           3.61254457976082   -5.07926821507265   -1.83374658298743
C           4.00561318304183   -8.63519585839375   -0.83455616361349
C           4.50433753524392   -8.55844487937277    0.46942380884394
C           4.53111379589190   -9.90245543002141    1.13896852312744
C           4.61154850335196  -10.95547938477005    0.04364679454358
S           3.75889948934453  -10.26192788434301   -1.42057232157131
C           4.79191915690649   -7.33525089609003    1.05216758996576
C           5.48087575113369   -7.21562528952992    2.35531792558581
C           4.86268705214572   -6.55125196461501    3.40736423927176
C           5.57188849955378   -6.23232757083581    4.56183828669479
S           4.61751810914619   -5.43072949300048    5.79240434445080
C           3.21237153648123   -5.23081920242180    4.63275248955632
C           3.39705039189637   -6.24091977813756    3.50708884453256
C           6.91582707492745   -6.53968129681917    4.65070578739126
C           7.52819844912862   -7.27287787767374    3.63824627386078
C           9.00666553537572   -7.44080149518936    3.83939689591852
C           9.30579713458846   -7.19082643137082    5.31219120611466
S           7.98477000048633   -6.10236412358469    5.96771368538204
C           6.81408465485527   -7.66101710927663    2.51140866118115
C           7.40635100307618   -8.62551993359393    1.55898302339047
C           7.61455369142627   -8.32241256695551    0.22341951761785
C           8.02607273481080   -9.30503306844582   -0.68223806257175
S           8.18381520041190   -8.75086685768547   -2.33087818052525
C           7.40487066500977   -7.15035638016424   -1.90351826541461
C           7.58667197132441   -6.95881655223899   -0.40509326346756
C           8.28348834391436  -10.58858601386331   -0.23967959741588
C           8.18356330375600  -10.88259303971596    1.11535661434209
C           8.47329453540970  -12.32204549991496    1.43700886081307
C           9.20820509807540  -12.92545407869712    0.24368432519789
S           8.75745052105985  -11.94805895108840   -1.24084722675241
C           7.73464769828887   -9.92807173565094    2.03023944047687
C           7.78560272924662  -10.28892880006469    3.43926468982448
C           6.93578128614604  -10.09858516917310    4.47639942176348
C           7.29390691592238  -10.32160560451047    5.84643249414195
C           6.33722341672433   -9.99860319794877    6.74375527738233
C           5.12047335607066   -9.55304294667724    6.15813839193445
S           5.25324522415234   -9.58012739952790    4.40807214692970
C           3.98190854369381   -9.14803070894077    6.79844361802574
C           3.77340727389361   -9.02031850877007    8.20247275797924
C           2.55082712604725   -8.56642025147114    8.54790456985330
C           1.67650507609257   -8.30397931928826    7.43941123690867
S           2.52633251821704   -8.68742262077143    5.93469294676737
C           0.41999414351572   -7.84401424662667    7.47389253624717
H          12.80589807056245   -2.90264752166507    5.47771602762057
H          12.74883087833389   -4.28214900290787    4.26381893037357
H          10.58557762569703   -1.47031229264833    5.81757816922476
H           8.16893180282582   -1.35444960742976    4.94429272233627
H           6.14889906885539   -1.61789569156350    3.77388727215464
H           4.18406578679300   -2.48767405583038    2.36942904208078
H           3.56604274639347   -4.26180530223305    0.81341437446172
H           1.71878254064000   -5.52838198407783   -2.80907062745714
H           3.01650791146943   -5.10778146995340   -3.94503941777501
H           3.06462782815019   -4.29139033447449   -1.31409241636080
H           4.55489965651618   -4.64704598061487   -2.18615861077175
H           3.59862601811182  -10.01188723921643    1.70328910859779
H           5.35453833269567  -10.01328426485438    1.83856610867115
H           4.12552950353788  -11.89056917855251    0.31122461054547
H           5.64274671418439  -11.15204303874510   -0.25124647031513
H           3.25159008480295   -4.20444419210499    4.26466425934845
H           2.29142430306158   -5.38103214843039    5.19156627404511
H           2.98250237605593   -5.85839856524842    2.57600483105331
H           2.87788661044462   -7.17405220280014    3.74690621300627
H           9.51099602138287   -6.69387036582758    3.21861878178627
H           9.36460051344332   -8.42322437439374    3.53654772454031
H          10.26066643197084   -6.69604482001175    5.47420296045741
H           9.27044375134200   -8.11344318134017    5.89351840013134
H           6.35152603638340   -7.22581639796645   -2.17507113335326
H           7.87777431804378   -6.37067554691259   -2.49567272250027
H           6.80449887030496   -6.32122671844444   -0.00362494350271
H           8.54791465200454   -6.47649374840727   -0.19736538939510
H           7.52574450200169  -12.84233678639303    1.61129854319118
H           9.07625065865030  -12.42764468160409    2.34039898772672
H           8.94404041097660  -13.96400654192303    0.05991718703537
H          10.28998468249659  -12.84559340485060    0.35828913687746
H           8.71205265876091  -10.78582791782983    3.71613274557818
H           8.27632761582326  -10.67826046264467    6.10553487177998
H           6.45776691797947  -10.06542704608419    7.81018600610650
H           4.55247546528613   -9.25847644423113    8.90466937194192
H           2.21891857509455   -8.39601239719778    9.55684449123206
H          -0.05923097236650   -7.62741069544827    8.41214996709154
H          -0.14887940804202   -7.68112640926222    6.57669868819446
