112
 SCF done       -193.344571169688          0.000862633349
C          12.21335259359175   -5.57639891873294   10.74115592245612
C          12.39545304632837   -6.40804743549878    9.70756198538851
C          13.63470166338078   -6.94508387354159    9.21939307126609
C          13.50800608704743   -7.76761795266125    8.15637326746180
C          12.16682269173000   -7.95213322254038    7.71146871913983
S          11.06530938889708   -7.02370173954376    8.71380330804791
C          11.73446968427296   -8.72731942845344    6.66736952014237
C          12.51259646434122   -9.52691224241452    5.78909884100315
C          11.78656550862966  -10.18497772796946    4.85530215730228
C          10.37642744906505   -9.96246134847675    4.91803038806651
S          10.03674327289891   -8.84892427984277    6.23939534255410
C           9.47763279980171  -10.56053210037279    4.08779275286370
C           8.04989052596629  -10.46665464570028    4.02888699076193
C           7.37299701055126  -11.34005361195513    3.15348070271721
C           6.00564388366154  -11.31097585631279    3.07733425109175
C           5.26441051466836  -10.40146325309444    3.85391406980038
C           5.91689203028294   -9.52120272909342    4.70612346854804
C           7.29256872493830   -9.56152576007246    4.78951600485098
C           3.85925059667278  -10.60451848017129    3.58446651626405
C           3.72825635339891  -11.64797293263153    2.65010492273939
C           5.08616502318313  -12.16306883323484    2.23354193941212
C           5.24592871004860  -13.65931316372197    2.55790710102042
C           5.00447257869091  -13.97248729665709    4.02968649050037
C           5.33314410808858  -11.93014643818726    0.73091223207737
C           5.19540957821807  -10.46659126057870    0.32897929102670
C           2.49007028390560  -12.07577927284669    2.24266389495726
C           1.34026937429133  -11.46103427395931    2.76171681419051
C           1.48804366481978  -10.39550666834488    3.66026700141074
C           2.73052125802881   -9.96814900908176    4.08179146027579
C           0.00662283528368  -11.89801304771651    2.41774379776608
C          -0.30513901702609  -13.08843140093676    1.87127755444476
C          -1.62752693680755  -13.55279393390963    1.57877911972270
S          -1.93937321461313  -15.25852742652176    1.72921280532361
C          -3.63399421283723  -15.05426813763497    1.36994419342939
C          -3.90593329985710  -13.72250593723274    1.08932620374244
C          -2.77678970816043  -12.88286947505950    1.20814181577507
C          -2.85698421554196  -11.44907380069251    0.78130280893927
C          -3.28740333015766  -11.39994789307657   -0.67460642181886
S          -4.97932620657086  -12.06844643275276   -0.80813214505649
O          -5.06587298707281  -12.87131107684738   -1.99657912624351
O          -5.91411689636495  -10.98419560562957   -0.66643635397395
C          -5.20424913626451  -13.16624210742110    0.65169656656088
C          -4.45287828185419  -16.21003726991098    1.45227095443207
C          -5.80134303955107  -16.25674553275183    1.61006999912468
C          -6.54178548320461  -17.45384692479954    1.70263657295681
S          -5.79975312656505  -19.01569940286617    1.65138446131277
C          -7.30672094059787  -19.85408205794601    1.87024370973788
C          -8.37191078077123  -18.94639068582022    1.91873516395387
C          -7.93657236784365  -17.58320327573822    1.84919879298734
C          -8.88559798084461  -16.55849815597140    1.89764194263341
C         -10.23062884266815  -16.85249303555917    1.99121004312090
C         -11.22419777882380  -15.77678754479620    2.03431624352055
O         -12.42898156071387  -15.95531496746014    2.08548808717822
O         -10.70792181275049  -14.54484917928185    2.01457491482042
C         -10.67281766318161  -18.21619880090216    2.00043989890485
O         -11.97189301640827  -18.54238623511804    2.06377489934175
C          -9.74729185976132  -19.23239659844613    1.94644376017804
C          -7.32086000609038  -21.26972573891597    1.96776951003509
S          -6.20106272781213  -22.22277812970341    1.05157961681106
C          -6.83330829401199  -23.69374440624835    1.64220841286615
C          -7.86337492848824  -23.49663944112520    2.53627023837221
C          -8.14178281600012  -22.10168314819891    2.74336997520370
C          -9.09493679592601  -21.73659646114977    3.70443046926189
C          -9.81150901760653  -22.69656925209405    4.38548901634635
C         -10.85921724096237  -22.32456798102708    5.36024695050659
O         -11.27571185044365  -23.09235736198540    6.20307323805194
O         -11.38164324369373  -21.09604738691119    5.27786790079266
C          -9.53851674996609  -24.09397315470686    4.16877465279378
O         -10.18765224313925  -25.04931476829649    4.84720164546951
C          -8.58494098089103  -24.46926626068183    3.25567424446457
H          13.05072035708447   -5.22685181071202   11.31876883703787
H          11.23560053134530   -5.23271476310452   11.02500229787188
H          14.56613606671871   -6.68751834188778    9.69185409323575
H          14.33104207388779   -8.25667960900296    7.66556557602151
H          13.58214923712834   -9.59055346194335    5.88083310994249
H          12.20668506892241  -10.83727601419443    4.10951941322612
H           9.91604312666860  -11.23998113622290    3.36496612568784
H           7.94473592728453  -12.03735559421894    2.55704766259907
H           5.35770664419739   -8.81453097284845    5.30078394501753
H           7.79418757234731   -8.87269874624892    5.44910318173646
H           6.25536560484813  -13.97136101063307    2.28186121649138
H           4.54279448506233  -14.22824470473563    1.94563261860878
H           5.71184264486639  -13.43472783683068    4.65714190529630
H           5.12377796440982  -15.03841822728032    4.21057073918975
H           3.99763513722627  -13.68366218785091    4.32371404214338
H           4.62082748339071  -12.53118051089948    0.16135359095898
H           6.33786612776501  -12.28008426227055    0.48441366220056
H           4.19511559845182  -10.10017962587383    0.54929745059761
H           5.37710670887273  -10.35231714005208   -0.73724234307290
H           5.91189494362650   -9.85129448142425    0.86865639256982
H           2.39731609408509  -12.87206464324937    1.51990441245158
H           0.60012772925123   -9.91409535272052    4.04561788206239
H           2.82096720373930   -9.15593234731877    4.78733455705005
H          -0.78909027297620  -11.22285953570350    2.70363527657480
H           0.47372344798610  -13.82075694948690    1.70716753556044
H          -1.88852276003720  -10.96131336948409    0.89165903540777
H          -3.59125493168484  -10.90859883886813    1.38525967084053
H          -2.65721170490008  -12.01508724480216   -1.31037738728491
H          -3.34111523069821  -10.38479039880517   -1.05709944145925
H          -5.89492070908012  -13.92779426376168    0.30480165755626
H          -5.67346978421763  -12.53583362360529    1.40511465511801
H          -3.91488337758682  -17.15085252686928    1.43985326583129
H          -6.37175197388839  -15.34651896379902    1.70964770245678
H          -8.58033598583497  -15.52560208223825    1.85430312725493
H         -11.42352798742603  -13.89002397754325    2.03347791252056
H         -12.50734792458384  -17.71845318800951    2.07495572198283
H         -10.09931590448405  -20.24952025019223    1.89004539574809
H          -6.41862561795001  -24.62386122121461    1.31041560297804
H          -9.21288500739399  -20.68745018623569    3.93674270198979
H         -11.07518882369983  -20.59676189879196    4.50853663894788
H         -10.74827773267308  -24.62860495725397    5.53554329819873
H          -8.37440916420313  -25.51675055303308    3.11613269998455
