135
 SCF done       -213.435496507842          0.000461698268
C           5.26787359221178    2.25515163494121   -2.44401212526939
C           6.15173376816956    1.34590122816117   -2.01281907396141
C           7.55433072533968    1.53214968376365   -1.76814698184496
C           8.19753587394545    0.42843979030988   -1.33163924694492
C           7.36761169430615   -0.72119556873487   -1.19330560458861
S           5.71747869507773   -0.33196269425433   -1.64906949776830
C           7.73914394442920   -1.96930493424318   -0.76665820860003
C           9.02888503333446   -2.40498146383436   -0.36202668479990
C           9.07608619327275   -3.70154498644285    0.02393415408783
C           7.83029516628716   -4.39791678687158   -0.04348486211409
S           6.59551707889957   -3.29515859646664   -0.64597924028244
C           7.66556754488675   -5.69276963359550    0.34418821377911
C           6.49854345694622   -6.52298765511177    0.36803199233977
C           6.59964422556527   -7.76836760618827    1.02093901277675
C           5.50696701585654   -8.59156164479880    1.11066494787789
C           4.29753916405958   -8.23057494255770    0.48641227034617
C           4.18715424436297   -7.01681845858001   -0.17777818179000
C           5.27415638575696   -6.16940297306270   -0.21889245184142
C           3.34766886978787   -9.30704933717492    0.65834075628364
C           3.95950030564322  -10.32531416453007    1.40806212832157
C           5.37289899731742   -9.93685746847695    1.78917034654199
C           5.41456088293235   -9.81937139018342    3.33028336384060
C           6.70615157594968   -9.27523700212107    3.92622681486340
C           6.40342115319479  -10.95042368197963    1.26859871136990
C           6.28482122167504  -11.17698286053871   -0.23429492209744
C           3.27031637770496  -11.46794242133471    1.73196738050774
C           1.95109405728501  -11.62968446980445    1.28807386605108
C           1.37011115196073  -10.62717064771599    0.50301125567916
C           2.04823110856737   -9.46416186729017    0.19681036367078
C           1.17317296074858  -12.80472264587795    1.63222029609902
C           1.35332037065437  -13.53387380390165    2.74335965779293
C           0.57600367982199  -14.69011967259430    3.14128977866149
C           0.52316623020594  -15.02166583212918    4.50327008467879
C          -0.22052451073288  -16.09923972575696    4.91841362529993
C          -0.86367026856322  -16.91892246182004    3.97235057114867
C          -0.81031237727488  -16.60728468995376    2.62018589369085
C          -0.10904534643688  -15.48866444372943    2.21844445466498
C          -1.46407459090880  -18.03678703779868    4.66264552522250
C          -1.21527879332695  -17.89679267366274    6.04044741274610
C          -0.46087637162059  -16.61415513436615    6.31925956161239
C          -1.41810550133591  -15.68973948089636    7.10885055597163
C          -0.92715168151106  -14.26719562203979    7.34160043891930
C           0.84654449175367  -16.86525903319355    7.08389087078101
C           1.74646716470817  -17.87249551650512    6.37680672607574
C          -1.67227353436207  -18.83394611077976    6.92912837683568
C          -2.36795599028789  -19.96635291333367    6.46215627707505
C          -2.59754585147719  -20.09471034514231    5.08088017682703
C          -2.16119288144461  -19.14147680289286    4.18712085209594
C          -2.81862373407190  -20.93157287036697    7.41899966454166
C          -3.34596413732497  -22.15923911874658    7.15707071199591
C          -3.77470104587030  -23.03980383086230    8.16338565666175
C          -4.25132339941644  -24.30697217836510    7.93252234306612
C          -4.71589441215305  -25.23597802428456    8.89301088011242
C          -5.11366371834332  -26.42983089491695    8.36902092989894
C          -4.97568383050324  -26.51005445419924    6.96583718342004
S          -4.34471211378141  -25.01793344585326    6.32642063778591
C          -5.25726103923832  -27.59201661534960    6.14488136684137
C          -5.77980544862340  -28.84700552151277    6.51075650667238
C          -5.91804164108196  -29.71014821032258    5.46011979527820
C          -5.50637131674674  -29.17925584191265    4.21971166142453
S          -4.95103711402606  -27.53500551963975    4.42278735115375
C          -5.50618196000797  -29.83442438698195    2.99922449693600
C          -5.05252941471750  -29.24754957188614    1.82727098559135
C          -4.99985998464174  -29.87125921299432    0.59231902111432
C          -4.52010096707286  -29.29940954041281   -0.63576572700734
C          -4.05393617238278  -28.01859006594167   -0.83820554329568
C          -3.59723621269820  -27.53042462282524   -2.07695457388206
N          -3.21029964752280  -27.06803503650903   -3.05564863866680
C          -3.96356428432891  -27.00868478158078    0.13879823449461
N          -3.85313631635035  -26.12362923243111    0.86467724407331
C          -4.61086178170461  -30.32855529238811   -1.67184666660109
C          -5.14711709122428  -31.50425959054059   -1.09444597089515
C          -5.41564318925115  -31.26073187318072    0.34065130636274
O          -5.88237064118691  -32.06486152827246    1.12625095915590
C          -5.35281453628672  -32.65570932039357   -1.81185705969396
C          -5.01071834837720  -32.64919117900091   -3.16924749739184
C          -4.47614832824676  -31.47104497972932   -3.73714073461769
C          -4.26932349346946  -30.30412979850761   -3.00978414560302
S          -4.11966943354177  -31.68004831541296   -5.42625592241240
C          -4.68698622656911  -33.32666921818820   -5.34444626310313
C          -5.12113768966140  -33.70249091238019   -4.11894387164794
Br         -4.65146079713877  -34.39549343407067   -6.88684135635213
H           5.57595709255028    3.26487875118739   -2.65083758759908
H           4.23241040028770    2.01092415917770   -2.59424683691813
H           8.01569173899369    2.49011282557160   -1.93156570270373
H           9.24738455558229    0.39019000095270   -1.09985534974978
H           9.87603864156002   -1.74261170818879   -0.36547846136463
H           9.96648033824614   -4.20075270236813    0.36525133446857
H           8.56451046032366   -6.16513609842719    0.72577165016441
H           7.55022322324001   -8.05718794490005    1.44510748282440
H           3.26215418743302   -6.73711805862138   -0.65946621886587
H           5.18474552637759   -5.22864986451541   -0.73733154162534
H           5.22532337175086  -10.81357905761252    3.74209826470307
H           4.58827603807020   -9.17281652626380    3.63797829720543
H           7.56316865840876   -9.87530091750222    3.63154621085836
H           6.63839826296471   -9.29634661135871    5.01214449227445
H           6.87051469580190   -8.24610532845378    3.61977223826490
H           6.26181850161024  -11.89893861621220    1.79140417847398
H           7.40738585270264  -10.58821868208302    1.49416654426010
H           5.30295455511012  -11.57052658032219   -0.48777033735318
H           7.03761923307991  -11.88785976918340   -0.56783268297227
H           6.42861883364038  -10.24338625391449   -0.77400626846781
H           3.74360792220587  -12.25530651325630    2.29956008204648
H           0.35720285972139  -10.76353549170062    0.15095387056264
H           1.57624380264564   -8.69350722586999   -0.39421561684408
H           0.36007646540634  -13.04308202122199    0.95895846614168
H           2.10331664217278  -13.22095386534102    3.45916888442406
H           1.07137321955611  -14.41603795795256    5.21019199169701
H          -1.30323395463633  -17.23471542200816    1.89261246063375
H          -0.05427227179847  -15.24506654361686    1.16823542668891
H          -1.61371088953709  -16.16205036464569    8.07442153756278
H          -2.36573871917561  -15.64769496775724    6.56502178802649
H           0.01856777657151  -14.25564385402657    7.87713576933750
H          -1.65883469987892  -13.72799274268059    7.93977676142123
H          -0.80791174414939  -13.73940816623574    6.39943025940527
H           0.60650512808533  -17.23024707266028    8.08494771490110
H           1.38444166057057  -15.92246514228303    7.19093446056656
H           1.24823492170670  -18.83467871975565    6.28081731979899
H           2.66580044773195  -18.01545652203643    6.94026793927714
H           2.00408300802507  -17.52080649503344    5.38014028449710
H          -1.49009096782272  -18.72837017864823    7.98945694572491
H          -3.13955333640237  -20.95089014056034    4.71127870074717
H          -2.35548071607173  -19.25500532571753    3.13127190253427
H          -2.70445340643091  -20.64673652442897    8.45887858033972
H          -3.43926610915909  -22.50801942709930    6.13782441566512
H          -3.72929974005196  -22.70666466925773    9.19260880085866
H          -4.74131223089764  -24.99310752455560    9.94080793138915
H          -5.49158936557449  -27.25087491761154    8.95101678569163
H          -6.04053742321300  -29.08513141730831    7.52642994229230
H          -6.29780178035189  -30.71302084009972    5.54085029264483
H          -5.86556254621534  -30.85281638431305    2.97314527179462
H          -4.70400533766748  -28.22429510050952    1.89724479901886
H          -5.76336696492936  -33.53598218764095   -1.34236490008941
H          -3.85757074521429  -29.43305296397604   -3.49105373813136
H          -5.50322231252250  -34.68090104012743   -3.89104743152039
