108
 SCF done       -198.950998987709          0.000254545739
C          12.78124859362748  -18.24025256178509    8.56598244478304
C          12.97150808293657  -17.52539946444060    7.44946036829754
C          14.20992953203539  -17.27189407534643    6.76850817572846
C          14.09245014844601  -16.51488614104518    5.65675350656117
C          12.76052919162322  -16.10515726508613    5.36213940369738
S          11.65474098205317  -16.72932665966515    6.57348458363995
C          12.33659017125538  -15.34098322713692    4.30585193055728
C          13.11510802051065  -14.78218422930994    3.25875953849212
C          12.39517515924169  -14.07693887556248    2.35394304294284
C          10.99152887407213  -14.01863894681492    2.61045258247442
S          10.64848130508324  -14.91938532945376    4.08407647711052
C          10.10027470795749  -13.36976985738411    1.80856855585161
C           8.68264841449585  -13.21788723864630    1.92047487851991
C           7.92954270559752  -13.70719985199645    3.00241714628061
C           6.57151087173273  -13.52313651844317    3.02397435069565
C           5.91571405955517  -12.84740081585916    1.97893716760760
C           6.64587676297802  -12.34821267373071    0.90596544426766
C           8.00926231121016  -12.53441024338928    0.88852616025848
C           4.50123500756902  -12.83338138312818    2.25823237913585
C           4.27561744473585  -13.50221370976558    3.47822335412651
C           5.58587684525982  -13.93066105615271    4.09800064168482
C           5.92106820754731  -13.09559590932337    5.35722520019004
C           4.93500712770540  -13.20871985187063    6.51247504257442
C           5.63452608128250  -15.43715919465117    4.38966242710794
C           5.43676990687798  -16.27735619649881    3.13320994046688
C           2.99503506957846  -13.69729818156582    3.92754703178220
C           1.90772831569111  -13.17276212504897    3.20338769380976
C           2.15373503602364  -12.48864655274429    2.00196415584176
C           3.43511630126720  -12.32857955858954    1.52255506141580
C           0.59333596592182  -13.35283962240326    3.74563108643635
C          -0.54927260293868  -12.75408942172666    3.33251463772480
C          -1.79380967761773  -12.90354873276922    3.98352266747507
S          -1.93590695678672  -13.76636265086012    5.47907652493951
C          -3.57668225728702  -13.24809991172553    5.74407210700902
C          -4.02101883163788  -12.47537148603720    4.65813140810141
C          -3.02232320634160  -12.32044513536299    3.64649321781784
C          -3.33298551995614  -11.57770250292978    2.47977663226311
C          -2.49029575195273  -11.54800628901481    1.27942765018844
O          -2.15708447121296  -10.57187287083843    0.65910165034029
C          -2.20198587572494  -12.94696972144058    0.63467464069332
F          -0.94128323477872  -13.06296029532684    0.20616887772603
F          -2.45366582181361  -14.00139614723489    1.41967677335684
F          -2.99825613552275  -13.08060085423811   -0.43961140536628
C          -4.53504456585446  -10.90197578080153    2.41141878592264
C          -5.48454327320341  -11.01722206269632    3.43453506135136
C          -5.25156250728308  -11.80764804925696    4.52896186963895
C          -4.28678207619582  -13.67973108443154    6.88138087197898
S          -6.00592168166239  -13.97791266312439    6.79716293816653
C          -6.02674073357414  -14.76963440052158    8.34159236618735
C          -4.74086120406075  -14.79171476704882    8.91452440362818
C          -3.77264988777767  -14.10952754366480    8.11538879930504
C          -2.46607591669758  -13.91239059487830    8.64422201293772
C          -1.58981687774695  -12.85650456860385    8.13442088349135
O          -1.93816170917852  -11.75977720698678    7.77596007520490
C          -0.06177865082085  -13.17222377958612    8.18164615277034
F           0.47964688221625  -12.86799873728549    9.37305872109217
F           0.20786187211848  -14.46862259993270    7.95722127619866
F           0.60570365437024  -12.47594181137794    7.26003301016960
C          -2.11263364769562  -14.56121385743485    9.81397151756825
C          -3.04488808043396  -15.32227384926720   10.52718025476040
C          -4.35091239644684  -15.40194707136719   10.11645001150012
C          -7.25270234771933  -15.25341242720793    8.81266025060795
C          -8.45449389337057  -15.12343834918575    8.09944905083079
N          -8.55189343415019  -14.55059489221171    6.89388094726132
C          -9.75443434657572  -14.50805115587874    6.37582618280950
C         -10.88188119685423  -15.03702890911609    7.04704248509873
N         -10.81778789309229  -15.60476081715811    8.22207979525201
C          -9.59105488122904  -15.66151348322634    8.78187472179440
C          -9.27292054208107  -16.21345767546344   10.02175273174328
S          -7.56681346413640  -16.05089214374021   10.32246080987358
C         -10.17872870528758  -16.82591665206196   10.93574161851468
C          -9.84508309044820  -17.34194871698430   12.12045294712952
H          13.61053917261725  -18.70854288743653    9.06600825381210
H          11.80473222258681  -18.36951247313018    8.99521532752926
H          15.13400586437571  -17.67187506005225    7.14683915386269
H          14.91653060030107  -16.22930386403318    5.02695009439289
H          14.18016047378499  -14.92217334160825    3.20921566806372
H          12.81705069742407  -13.58523054536828    1.49460181227520
H          10.54068908592058  -12.89563167669957    0.93835790928063
H           8.41670633924297  -14.22532836007361    3.81172100753202
H           6.15285546763335  -11.82466832916716    0.10048095608272
H           8.58718248601795  -12.15221362449029    0.05884527549569
H           5.98650544547362  -12.04675714670529    5.05537479960569
H           6.91180345786484  -13.40216965316562    5.70046737129497
H           3.96088460210493  -12.81556028724805    6.23481389865752
H           5.30360432711585  -12.62774623748959    7.35530295127516
H           4.82271384030280  -14.23899868572557    6.83937840428485
H           4.85485278762597  -15.68704654346095    5.11009973044027
H           6.60018421779831  -15.67738416600026    4.83927722988416
H           4.47455177689025  -16.06023917945497    2.67412508480692
H           5.46939959890482  -17.33578674630745    3.38131873436742
H           6.21826449366247  -16.07066070810840    2.40542971911710
H           2.79785183358596  -14.24628373437610    4.83602644818130
H           1.32630134961376  -12.10540530867610    1.42620509563833
H           3.60735726947473  -11.82179172550278    0.58498041927285
H           0.52673096429328  -14.01321674849336    4.60294714967175
H          -0.53395335076295  -12.05972631015777    2.50283322459332
H          -4.75761005743505  -10.31735064785467    1.53184804740622
H          -6.41867559425525  -10.48592592641912    3.34037491726460
H          -5.99776967268190  -11.90753009634829    5.30063887477068
H          -1.12848919640369  -14.42933091935098   10.23465669654282
H          -2.73452736347731  -15.80771383197843   11.43896734504774
H          -5.07808118422087  -15.93328202058737   10.70915089961822
H          -9.84755302274470  -14.04985220062589    5.40174995741628
H         -11.86194282377144  -14.98905719220814    6.59248590356571
H         -11.20227979777796  -16.84157070257686   10.58541555632006
H          -8.82675271190262  -17.32670085432975   12.47366842885717
H         -10.57828986408402  -17.79036327788652   12.76579194629034
