129
 SCF done       -202.244738931924          0.000523134541
C           7.85305472331731   -0.88314820547806   11.22486955358395
C           8.24507557829016   -2.08387003355794   11.67014532157565
C           9.08988239704755   -2.37056066218131   12.79527771420378
C           9.30926815541480   -3.68526551329190   13.00954449811504
C           8.66162263838054   -4.54930075317906   12.08030857446763
S           7.75809771575825   -3.60616229037928   10.90771902009392
C           8.68769356691871   -5.91939498585007   12.05810015474830
C           9.35677635505624   -6.79530509045498   12.95375455370815
C           9.16509764061143   -8.10830185624770   12.68554793301398
C           8.32918253305887   -8.37749661071060   11.55890523607288
S           7.82734345337638   -6.84818801396180   10.84296554934123
C           7.94970120221116   -9.62646788755290   11.17193531790655
C           7.09406468149760  -10.04331867449902   10.10153930521521
C           6.59900863494331  -11.36218862834507   10.13349895741761
C           5.73913808744165  -11.79412307709754    9.15891030912938
C           5.37415672792568  -10.94455872011860    8.09672017862817
C           5.88181936866749   -9.65318649638589    8.03350048441171
C           6.72370072495087   -9.21211769524469    9.03227882881973
C           4.45817034541223  -11.65394431279644    7.23456691652895
C           4.22949978653845  -12.93144691402209    7.78046960481656
C           5.05689312160951  -13.13507829392423    9.02709028886307
C           4.17796016541531  -13.44990735266511   10.25043489472608
C           3.13314711836526  -12.37371741836909   10.51820720364691
C           6.08331402423892  -14.26659340004987    8.82408136614136
C           7.00437196515833  -14.02565407999941    7.63392104096843
C           3.34539478276719  -13.79488183899659    7.18882866610646
C           2.69479566257300  -13.42065417313464    5.99905440129361
C           2.96083860649784  -12.15842451815613    5.44607810978862
C           3.82152780801882  -11.27225395614088    6.05938317783986
C           1.76426437056905  -14.35194928318835    5.42578334066483
C           1.29407185258454  -14.35378804311027    4.15463569853055
C           0.36449955775019  -15.31446321643176    3.69091939728039
C          -0.34543121321728  -16.28289839166792    4.41275099409017
C          -1.21278453636909  -17.09123060270113    3.58586756196416
N          -1.97521497818164  -18.04463186033969    4.13426433324646
C          -1.89022365759648  -18.22324939978205    5.43281642106315
C          -2.75869764711566  -19.26423330176913    6.02771942594762
O          -3.53830794709607  -19.92889406261052    5.37235662967570
C          -2.61766763344419  -19.43278102393223    7.48282006291705
C          -1.77413364390764  -18.71721429277382    8.23567287199738
C          -0.88313175484169  -17.67730719287029    7.69798620611303
O          -0.09588737115853  -17.07119171353318    8.40176936389326
C          -1.00798145791024  -17.44101933849081    6.24503774743565
N          -0.26529897419116  -16.48561711823087    5.72860517932439
C          -1.14310626813723  -16.76990366380042    2.22775175730155
S          -0.04198888911111  -15.44255057880116    2.01022895153925
C          -1.77564622314366  -17.40953078679876    1.11330601901469
C          -1.37153079547820  -17.09935101555556   -0.19787527904192
C          -1.91303242318190  -17.78861690209739   -1.25027052803612
C          -2.89468109317014  -18.77391736632540   -1.03191685466073
C          -3.33204813722945  -19.05441137213775    0.25695424663587
C          -2.76893294174134  -18.38212099868552    1.31984353883605
C          -3.21276685508029  -19.38980737773077   -2.29764340265795
C          -2.40856368820703  -18.80776161257968   -3.29727442782568
C          -1.61243269105483  -17.65516798169248   -2.72785473579432
C          -0.11279813098323  -17.75638958030122   -3.03492090169883
C           0.50396235356102  -19.04145252337656   -2.49482570467651
C          -2.19861300740950  -16.29652975646527   -3.18270832826640
C          -2.18188556116001  -16.04288320477965   -4.68421356523898
C          -2.39633732230449  -19.32552513476988   -4.56755668797618
C          -3.23555796615082  -20.40726782550354   -4.88739934406795
C          -4.10320843779731  -20.90706110926885   -3.90313101531606
C          -4.08237368497750  -20.42667142418557   -2.61157802909725
C          -3.20856458578731  -21.03811551944408   -6.17929477667647
C          -2.18297147260091  -20.97038042707997   -7.06424040471743
C          -2.15706053314201  -21.65594394134916   -8.29634478017295
C          -1.06726980631752  -21.70212070277844   -9.12095308352354
C          -0.95445671820178  -22.38891611241440  -10.35926702847009
C           0.26739376537168  -22.29894953389848  -10.94355367302015
C           1.20709389309913  -21.53413941720947  -10.20527099351547
S           0.46292642040959  -20.91593424639396   -8.74317114927352
C           2.52254147870282  -21.28893909719899  -10.51249727793942
C           3.24615690473694  -21.74530151336781  -11.65002683376766
C           4.54152320937153  -21.36299052530882  -11.67804181402832
C           4.95047704112508  -20.56670310619544  -10.55615889055103
S           3.56813939506588  -20.33729361119318   -9.47349126567563
C           6.16451186204050  -20.05553694331059  -10.31196588831420
H           8.17146131901905    0.01696560189950   11.72036740655344
H           7.21356709732613   -0.77897327360753   10.36773644546936
H           9.49279664502821   -1.57299833396058   13.39415499576201
H           9.91477136101672   -4.07725336542456   13.80766488642486
H           9.94982196314257   -6.42386156485198   13.77027158238093
H           9.58814846251269   -8.91351389079912   13.26078679313464
H           8.31739087484351  -10.42916999731216   11.80161186071749
H           6.88457014238612  -12.01393714650678   10.94730406385471
H           5.61812962742482   -8.99768707085699    7.21698848304728
H           7.12254065082668   -8.21201588802180    8.97680747256354
H           4.82169569163320  -13.55719376571060   11.12629466875261
H           3.67715789669774  -14.40559870534099   10.08455536585125
H           3.60826906225501  -11.41298564705305   10.70553976447547
H           2.53795946707331  -12.64029396125651   11.38836741881093
H           2.46625944966633  -12.26755379666068    9.66570107664809
H           5.54309949193499  -15.20442447822336    8.68002927753975
H           6.68292864058431  -14.36105799430837    9.73202841667309
H           6.43031342255556  -13.94799386977708    6.71319322311495
H           7.70725675143322  -14.84949556786502    7.53238571096445
H           7.56913664841029  -13.10497101304068    7.76441458729649
H           3.14016859115481  -14.76566537576242    7.61553266390294
H           2.45370273975145  -11.86267312263639    4.54007575490047
H           3.99480252724285  -10.29458220807229    5.63443405132417
H           1.42629231806834  -15.14256459616158    6.08206297569661
H           1.64180675475371  -13.63511806805482    3.42435554035614
H          -3.25296125465911  -20.19191526156442    7.91929203591804
H          -1.70073907705576  -18.87751715970498    9.30308732948724
H          -0.61081631412961  -16.34712296810237   -0.35440019713723
H          -4.08914937273588  -19.80368259468253    0.43079857318177
H          -3.07283500937897  -18.60715219055279    2.32903465794710
H           0.39630982990669  -16.89503955866114   -2.59702086944924
H           0.03536400196600  -17.71896954166475   -4.11475250795839
H           0.39962293880744  -19.09485527950527   -1.41340482545418
H           1.56228336098716  -19.08198904043293   -2.74208558646644
H           0.01558387107313  -19.91126595612693   -2.92875807419897
H          -1.63836734017686  -15.50631100694204   -2.67744427853459
H          -3.23248828068724  -16.24416916277937   -2.83070558329493
H          -1.17023047429778  -16.06818693436300   -5.08031547469235
H          -2.59843633921212  -15.05851452752504   -4.88771957595393
H          -2.78490374405078  -16.77991317242301   -5.20783436544422
H          -1.74835128413112  -18.91378050376762   -5.32515515672001
H          -4.76751453402548  -21.71972160207586   -4.16110602744768
H          -4.72074683135415  -20.85682246902228   -1.85445250186885
H          -4.05450066214093  -21.67098480952050   -6.41938919012290
H          -1.29561153011425  -20.40099757368718   -6.82030685639843
H          -3.04128157881627  -22.20012832138319   -8.60209545598144
H          -1.78764894166375  -22.93216879732416  -10.76999162472015
H           0.52664231390222  -22.76206370492578  -11.87885235298057
H           2.77500223922922  -22.34553042499877  -12.40826658488470
H           5.24131697459016  -21.61425128477634  -12.45529572271400
H           6.97746464069988  -20.22065879770510  -10.99671523451990
H           6.36563317218378  -19.47072504985860   -9.43331928001304
