102
 SCF done       -157.153645941589          0.000693816162
C          12.77842848348938   -9.14815025155651    4.61306524034307
C          12.45704512327716   -8.40957948546243    3.54297090741044
C          13.32065531321794   -7.56344808957631    2.76847127052363
C          12.71518469249298   -6.94404597569766    1.73317687650545
C          11.32946846460924   -7.24394443970162    1.59745113811309
S          10.82411092576061   -8.35231754127128    2.86146988373923
C          10.46456643769197   -6.77801570785745    0.64192990658928
C          10.73741518925505   -5.89343887376313   -0.43412084878519
C           9.66554487374962   -5.63529519994268   -1.22041787410409
C           8.45751283367930   -6.29111738053660   -0.83209151693853
S           8.77758458059770   -7.25702315331205    0.60647800975226
C           7.27408149970796   -6.15562784615276   -1.49371573512106
C           5.98782950440253   -6.72599365910396   -1.23152832137882
C           5.73875475522064   -7.62796569757888   -0.18200719316080
C           4.46984513526510   -8.10660265532122    0.02160273045947
C           3.41953273480265   -7.74608915410409   -0.84388850714277
C           3.65031542650983   -6.86558408116721   -1.89344268377036
C           4.91853551874403   -6.35921593620577   -2.07002795997161
C           2.22627065981945   -8.45591093292994   -0.44639453197796
C           2.52985521764952   -9.24187745700866    0.67901966605963
C           3.97476875311977   -9.05356530715711    1.09109021052857
C           3.97402039073152   -8.38951094697252    2.48724681341312
C           5.34210934815332   -8.11708166545150    3.10070874944992
C           4.74224656993834  -10.38370538265348    1.08766894588298
C           4.64449806198783  -11.10789196866017   -0.24989220535611
C           1.57262869590873  -10.03412236311778    1.26079843817831
C           0.28170469474518  -10.07984051282630    0.71091033468033
C           0.00311885920333   -9.31264333769141   -0.42918036633000
C           0.95388332740744   -8.49354428273801   -1.00175918849137
C          -0.74948739665151  -10.91755417188409    1.27370776984635
C          -0.77473104759331  -11.36111247067725    2.54814627023242
C          -1.72545666105767  -12.26300986128308    3.09913692994845
C          -2.72369170885611  -13.00507733443076    2.55015394678391
C          -3.28889969394107  -13.89790334613126    3.53891069123170
C          -2.65109774933072  -13.75633249023836    4.72506905221947
C          -1.72575832434029  -12.57466952081825    4.56598360165165
O          -1.26047177257817  -11.88201771849108    5.43842908495995
C          -2.75639507559329  -14.49545091848851    5.94803322670412
C          -3.88757547033399  -14.99300588252300    6.56469940169986
C          -5.31313162172295  -14.94419372325925    6.14937830906792
N          -3.49744904097240  -15.55091260159080    7.74479854703927
C          -2.14721531368029  -15.43566485151933    7.91509786739892
C          -1.46561881916808  -16.00274258675304    9.10769759276492
C          -1.63954312952839  -14.79202845632898    6.80674390769007
C          -0.26945347197400  -14.46691981707750    6.50864909647533
C           0.21150060742089  -14.41963385368193    5.25333868968069
C           1.47593138631114  -13.87772278149881    4.85200911041201
S           2.18129711726290  -14.39931337763177    3.34231653727281
C           3.48147026073044  -13.29762585947785    3.51798583173244
C           3.37603012289249  -12.56035611943137    4.66117519826769
C           2.22967941263558  -12.88372872622562    5.43102991732823
C           1.87359998038836  -12.11861466283932    6.66386857091226
C           2.56837574025908  -10.75924447757401    6.65187740093786
C           4.06954598829967  -10.94390827054235    6.45519669287993
C           4.35872475768310  -11.49237839153559    5.06216585181375
N           5.70306589042758  -12.12481889782631    5.00353881523905
O           6.08089739945702  -12.75263500562978    5.96156161517141
O           6.31267329072068  -11.99853615050879    3.96774848839423
H          13.78468385169046   -9.15491954964265    4.99349990701843
H          12.05104662733028   -9.75480157897030    5.12013099006500
H          14.36028120657293   -7.46095840829070    3.02511227350978
H          13.21168228092738   -6.27749360809047    1.05021855485679
H          11.71736721725910   -5.47887371588573   -0.59035681321082
H           9.68715216075146   -4.98951102008243   -2.08108486127731
H           7.31211405321505   -5.49742230329437   -2.35476614775562
H           6.54870124328374   -7.95562305006415    0.44656375881731
H           2.84984845381055   -6.58487804207720   -2.56207678043579
H           5.10745812984865   -5.66778944610550   -2.87940592113990
H           3.39804473405213   -9.03340141922156    3.15775039026930
H           3.42957700126251   -7.44473918866600    2.40535512464842
H           5.93327148072653   -9.02486400146609    3.18886704166357
H           5.21221078907439   -7.69661336582401    4.09656733560347
H           5.89920392553298   -7.39968261067827    2.50590865099715
H           4.33676356994535  -11.02471873508906    1.87236637617299
H           5.79235146055027  -10.19840620197339    1.31280805768970
H           3.61082606692886  -11.35467570459554   -0.48346992466885
H           5.22040500959017  -12.02965576509221   -0.21519476057444
H           5.03889296587704  -10.48677848073232   -1.05134046439527
H           1.81281763956693  -10.65487319491614    2.11138529730039
H          -0.99017951397695   -9.35736704917778   -0.85404065321425
H           0.71451797639898   -7.90019888432588   -1.87201665487230
H          -1.56384707722251  -11.18022781374505    0.61058034852427
H          -0.01723673917517  -11.03426453120483    3.24961892803677
H          -3.03689964496281  -12.99801815660066    1.52131383084405
H          -4.05239507148457  -14.62029872565329    3.31044435202129
H          -5.60984186152262  -15.87383579626388    5.66046489075845
H          -5.46243722372788  -14.12834404362996    5.44683424559544
H          -5.96149462764090  -14.79212405448448    7.01123227099520
H          -4.12145826849346  -15.98459305491323    8.40629023096453
H          -2.02407522346629  -15.77410860355944   10.01515741118969
H          -0.46600262189304  -15.58779912760791    9.19675803067465
H          -1.37680774134464  -17.08759185529775    9.02777394674313
H           0.37237427912289  -14.24180181407359    7.34750760421064
H          -0.39700263896386  -14.80242017493050    4.44293180996073
H           4.25649537738333  -13.26436606576421    2.77728288240438
H           2.19131141685254  -12.67392932384304    7.55203122397177
H           0.78886586016226  -11.99578967156022    6.70820447264562
H           2.38158844733822  -10.24294786780325    7.59390280444073
H           2.16185627374059  -10.14446375658306    5.84601420864810
H           4.44745561018251  -11.65215549699895    7.19635479661793
H           4.59412095238751   -9.99558981340493    6.58787668048295
H           4.37307046438960  -10.69690331610104    4.30928404888743
