82
 SCF done       -138.524868604994          0.000649081229
C          -3.64444980832920   -5.91423489663641    3.51533067894768
C          -2.55900145367072   -6.18302848249140    2.77547862316968
C          -2.51190057077435   -6.75519104159566    1.46155137210080
C          -1.26390254611298   -6.90744152105616    0.96264468177801
C          -0.22562921948875   -6.47473418923967    1.83057628287453
S          -0.90760530695254   -5.85785790796681    3.32549743185771
C           1.12976606018292   -6.50789837893156    1.59936953234462
C           1.79713527893837   -6.97318266604995    0.44048318969903
C           3.15202743412838   -6.88270152923760    0.51137539954367
C           3.63686267156354   -6.34268527598662    1.72852908132820
S           2.29509125686085   -5.94546749767580    2.78646727380041
C           4.95154976034800   -6.15192592200223    2.06936633164474
C           5.39645387393858   -5.63367480926294    3.29806174303805
O           4.50761069213375   -5.25851439774099    4.25408827677876
C           5.20877550855182   -4.82899588063474    5.31333939533437
C           6.54860779466398   -4.90686299599873    5.09266150737637
C           6.69928505133522   -5.43128706490472    3.78161368423291
N           7.83620529820160   -5.65488276551750    3.04846083611307
C           9.10592922766501   -5.89076728107152    3.48295803996285
C           9.50130345760337   -6.12911297829012    4.76379876284897
C          10.83265260519825   -6.39372707462203    5.11226622174205
C          11.25280781402231   -6.71344728999849    6.38444712537634
C          12.55268642136647   -7.07844472306108    6.78823348972300
C          12.65976359043992   -7.39791043964238    8.11494460227285
C          11.45663950253428   -7.28307666227888    8.82900580302085
S          10.17010992927699   -6.75546867273793    7.77089869383389
C          11.23250581757213   -7.55641277169553   10.17605152203106
C          12.12982991367364   -8.08898906987000   11.10949146994864
C          11.57236314408286   -8.29281917313440   12.34776567590794
C          10.23311825049964   -7.89220236802912   12.45820520537590
S           9.67383129720364   -7.28308696110509   10.92040126568584
C           9.43667714304289   -8.10009943255548   13.58969853667439
C           8.18930778960231   -7.61948467918374   13.91947634277716
C           7.47072207543501   -6.52000840879954   13.43928741863523
C           6.15795588189282   -6.20799806065863   13.82528264526178
C           5.69441165518026   -5.00415876713167   13.35727215962371
C           6.63966246572209   -4.29796820949606   12.60146897355889
S           8.11792507789610   -5.22333820407093   12.46429327493855
C           6.52250826838559   -3.03047823884326   12.04066151277749
C           5.41830315715840   -2.16195847406665   12.10714359777074
C           5.62565533684077   -0.95687587956744   11.49817012558869
C           6.90916110688290   -0.81369458456607   10.92426634175955
S           7.83821293535086   -2.28322002615040   11.16315049890180
C           7.39995655790521    0.30592357819850   10.29582275439970
C           8.68614363332913    0.40457855368760    9.73219001493801
O           9.47991971611998   -0.70499803943422    9.70714012900614
C          10.60677081606400   -0.39511848137631    9.05630025281120
C          10.59767381206659    0.90398946510978    8.65285336266355
C           9.36561353623836    1.45259550253928    9.09507304717336
N           8.99299417816759    2.75653184698526    8.89363505770876
C           8.11036348002850    3.50002966153709    9.63629745425291
C           7.80320621881979    4.76507879850347    9.36385845455204
H          -4.62999105412905   -6.12845906038388    3.14139120537474
H          -3.56741948302763   -5.48156111950582    4.49565913563213
H          -3.41761897688585   -7.02768933368534    0.94915612042499
H          -1.04640630171185   -7.32080443669530   -0.00655252689877
H           1.26158514524635   -7.35966968822811   -0.40816586224688
H           3.82498433642387   -7.18853642326401   -0.27099406766108
H           5.70405694227231   -6.43909641277048    1.34859560252783
H           4.65096629825292   -4.48831534065890    6.16255180283159
H           7.31983512593869   -4.59644146479827    5.76503348246270
H           7.68020083410765   -5.74560291327738    2.05459202590494
H           9.84043984876727   -5.90745148695163    2.68848852621712
H           8.76968184632443   -6.17378509772152    5.55540363168770
H          11.58412494962484   -6.37614581813057    4.33344199070855
H          13.37045096734824   -7.10801204173669    6.08940164639838
H          13.57502330010941   -7.70550648210883    8.58849201117044
H          13.14902209943127   -8.32494295384768   10.86120758277356
H          12.10628735357676   -8.70693558094225   13.18578091981614
H           9.87284995339071   -8.79374757804221   14.30078562941574
H           7.69543182759124   -8.12809061380768   14.74063865075219
H           5.57735494713277   -6.87907183793578   14.43473404134369
H           4.70832707104506   -4.62186228461504   13.55075866955912
H           4.50428736900967   -2.43725405766200   12.60239200484311
H           4.89928605269370   -0.16437519663472   11.45192142315477
H           6.74193833392998    1.15519879373150   10.20237081385482
H          11.33849059540554   -1.17061946973834    8.94709881045027
H          11.36768611653375    1.41969008354933    8.11577344855363
H           9.53630395160457    3.26598903793367    8.21079598995377
H           7.69136103598263    2.98858616653708   10.48854896260685
H           8.22454006586699    5.28350788747181    8.51943485749256
H           7.11870185922106    5.31429949180817    9.98045831529130
