69
 SCF done       -131.850384197677          0.000216357878
C           3.56895488658000  -16.91705943248779    2.71581593233494
C           4.15078641711659  -15.77970946381956    3.11596129601391
C           4.89172701080868  -15.55116780604147    4.32574075524380
C           5.36033674204698  -14.29399564876400    4.46438541202910
C           5.03533442000047  -13.42318068565334    3.38155556119894
S           4.10057906260999  -14.28081077146025    2.17309324629500
C           5.36746672932578  -12.10085919004985    3.24842876271071
C           6.10671990687182  -11.28889193678355    4.15423416183793
C           6.26635455267234  -10.00978827602619    3.74878051138917
C           5.66743450010759   -9.71665288002930    2.48144211013818
S           4.89444287705759  -11.16382744069215    1.84247476026751
C           5.64960984603650   -8.49826774462179    1.89625992570111
N           5.09752627588648   -8.20866131026632    0.65381580133375
C           5.26432605933808   -8.92093981139643   -0.53297182550717
S           6.28311389728694  -10.19807290805547   -0.71475464021012
C           4.50752538795734   -8.26475855080932   -1.54696298064420
C           3.93777217710531   -7.15212608304691   -0.99433425709613
C           4.32499969237948   -7.11210030456167    0.41442415185000
S           3.88415767584201   -5.95168144831797    1.48953686340051
N           3.15162577725778   -6.15457336143448   -1.46467871111148
C           2.65679199961459   -5.96258479747237   -2.70950606604655
S           2.99870633650669   -7.05384183098464   -4.00943750051751
C           2.04016253456743   -6.07006633833916   -5.06894750738238
N           1.92780061604412   -6.48343826279006   -6.39938541711769
O           1.25548804409626   -5.80543384911867   -7.15340963626307
O           2.52120818711052   -7.50584786681501   -6.70350502363792
C           1.49619658173078   -4.97421005148136   -4.45401845454989
C           1.83682837793184   -4.88805007949080   -3.09162619819067
C           1.42572496574441   -3.85331066573074   -2.17816036843270
C           0.68051832858144   -2.80058922626277   -2.54337908651836
N           0.25406341007879   -1.76146773111690   -1.74421773810507
C          -0.50423562713515   -0.70586069646625   -2.28400760850997
S          -0.97131548860448   -0.61750541536712   -3.86488293316906
C          -0.76922104641875    0.21284603966738   -1.25298654315506
C          -0.19563495499746   -0.25385565133748   -0.08460074595527
C           0.45369542023758   -1.52482867860464   -0.41187868706691
S           1.26930696640939   -2.46415834820417    0.66482260837379
C          -0.15614779122741    0.27569299640880    1.21381341924815
C          -0.66580698528154    1.47508633509471    1.64442414768765
C          -0.58477593495214    1.96667497286031    2.97456093266422
C          -1.13969046164378    3.19405138095782    3.15581873386961
C          -1.69453209098140    3.74934381812479    1.97712303189960
S          -1.49002228633126    2.64149896055362    0.63448438981264
C          -2.31059463748580    4.97111997690532    1.82165533720691
C          -2.53149682870533    5.95848529111706    2.82543733827421
C          -3.15426487743869    7.07111701370967    2.38024867887946
C          -3.47689935977196    7.04883184401985    0.98144554961243
S          -2.93294618804412    5.51405841180923    0.28349941235634
C          -4.08617021850729    8.00195253268940    0.26403869938617
H           3.62261446495512  -17.80463235332654    3.32136063248472
H           3.03458997271918  -16.98191168333291    1.78580236818316
H           5.03812081470834  -16.34576968144098    5.03581420507272
H           5.93450818815491  -13.94884274218618    5.30581212456708
H           6.49266013476259  -11.68334088644451    5.07710839138589
H           6.79295283099051   -9.25009867170029    4.29801533250532
H           6.03112254070301   -7.63743134368430    2.42910988339282
H           4.46726814746269   -8.62146604178409   -2.55564210500808
H           2.91697470714740   -5.46623473502447   -0.74584612114296
H           0.87740009389818   -4.27507223277629   -4.98508620945611
H           1.74651403854245   -3.94593499083811   -1.15339297125469
H           0.34216795595217   -2.67499505825373   -3.56344856032187
H          -1.33470469693397    1.11030458851670   -1.40266567435359
H           0.34937282836599   -0.33474030225976    1.95244837151567
H          -0.11315058494176    1.38980459975316    3.75018729851622
H          -1.16320812930246    3.71413403175454    4.09634891490060
H          -2.21691239031339    5.80392146217650    3.84200509534453
H          -3.40422458119337    7.92284357757100    2.98736381506433
H          -4.39995389948080    8.92161377856449    0.72574363248757
H          -4.27996332163734    7.88214365470288   -0.78626802572535
