77
 SCF done       -128.442508399375          0.000189261869
C          -4.91338106282960   -7.64803676961722    2.22681055014071
C          -3.88554132596857   -7.36663397890601    3.03978453368709
C          -3.93685190860056   -6.81004964764829    4.36069658757476
C          -2.72989630809605   -6.65544306512342    4.95028323988742
C          -1.62724970706069   -7.06724332423873    4.15320098840768
S          -2.19530407422058   -7.65957049285285    2.60243777442457
C          -0.29373776036578   -7.04527058321360    4.48681193354658
C           0.28796889176450   -6.62292832629716    5.70765223200524
C           1.64137322266403   -6.74610284189368    5.74474601358472
C           2.21387606028567   -7.27066852527058    4.55888730512899
S           0.95423694691348   -7.59151467476065    3.38035378812974
C           3.54153632161128   -7.52512092965472    4.32539385695417
C           4.03120708983243   -8.05902079374093    3.12241402457769
O           3.17070723013133   -8.30918668989259    2.10753120181706
C           3.87527214064368   -8.83001333822759    1.07380843667989
C           5.21887316468363   -8.91589639081156    1.43656250487014
C           5.31999823672443   -8.42422758565114    2.73208827678399
C           3.21459494043259   -9.17186346675284   -0.12350740765679
C           1.88005244744019   -8.94820872618389   -0.30717710437701
C           1.14690905270438   -9.25323861497134   -1.46053456010103
C          -0.21347307377796   -8.96603175043114   -1.69903441013986
C          -0.66067330158902   -9.40555786436991   -2.97728881971268
C          -1.99552430894242   -9.18116800936474   -3.35784267328045
C          -2.84270039011336   -8.53879697374486   -2.49607472927951
C          -2.39790043214705   -8.10240781521171   -1.23668724715478
C          -1.10675576236552   -8.30967633914293   -0.83529673925343
C           0.35136936535697  -10.04135930810651   -3.72694124536573
S           1.84247862685187  -10.06619833914358   -2.83057652012853
C           0.24064341682203  -10.60215882038349   -5.00686714334818
C           1.24423450415883  -11.24185262869749   -5.67512089056390
C           1.09557769530449  -11.80696105443102   -6.95788700736696
O          -0.07790210682547  -11.71957223605069   -7.63015357480081
C           0.07088131171674  -12.35773535307118   -8.81963972678888
C           1.36796730639210  -12.86390338215887   -8.90816301634629
C           2.01571786311538  -12.51308754820773   -7.73151437798404
C          -1.02065068350246  -12.39888239897949   -9.70843107587624
C          -1.01178965336856  -13.02893176963586  -10.92152638832127
C          -2.10655677907979  -13.05016468961114  -11.79317958756352
C          -2.12221357005032  -13.69607054653308  -13.00582608329672
C          -3.19208446936088  -13.74806844535380  -13.93152251825007
C          -2.93206750596004  -14.47158577541603  -15.05419073458376
C          -1.63653974744797  -15.04122088245381  -15.08397365884165
S          -0.75684790269162  -14.61152231825135  -13.62929675210638
C          -1.08159341297247  -15.83045704274048  -16.06446606346083
C          -1.68370554721468  -16.25118738549507  -17.28117232303173
C          -0.89780215407287  -17.03674502524449  -18.05187681459643
C           0.39908903620465  -17.30170488151102  -17.49995523922678
S           0.54424852867948  -16.47691867575883  -15.93962789543332
C           1.38158939505876  -18.04498223718047  -18.02830096595607
H          -5.92535772905425   -7.45282265252108    2.53475998078286
H          -4.76547127658152   -8.08037350509111    1.25429435239379
H          -4.87962851277964   -6.55547100918669    4.81175294064399
H          -2.58613605515790   -6.25738812051153    5.93933583494827
H          -0.30674528982495   -6.24824257598782    6.52155421515443
H           2.25532765102693   -6.48174478056151    6.58804729241253
H           4.25865827449107   -7.31741555599802    5.10467257673983
H           6.01007001029503   -9.28967758898451    0.81847945470654
H           6.20379771109886   -8.33771485342935    3.33127356557393
H           3.81447957322161   -9.61314486424595   -0.90599653388858
H           1.33149874560756   -8.48758723977602    0.50307653409644
H          -2.34302795545615   -9.51268156055339   -4.32428454236054
H          -3.86864614021171   -8.36062198634617   -2.78324770441590
H          -3.08540295896052   -7.59226037525855   -0.57888422222029
H          -0.77505606226726   -7.97458267252795    0.13447338590370
H          -0.72299067220178  -10.52384423456563   -5.49073055354712
H           2.21801399852514  -11.34606063872731   -5.21832538817874
H           1.77442979295267  -13.41382832189628   -9.73204517344461
H           3.02592108352605  -12.73454006458931   -7.45196756118763
H          -1.91655049728392  -11.88951067752417   -9.37969412045469
H          -0.11776728501956  -13.54703428182555  -11.24115101295026
H          -3.00729333089980  -12.52582727330629  -11.50090365010453
H          -4.12326796778415  -13.24582810586814  -13.73463602841024
H          -3.63254892335070  -14.61390157551892  -15.85759378531954
H          -2.68432702283161  -15.95417468445537  -17.54184363552024
H          -1.18348777553798  -17.44925491662049  -19.00332439150680
H           1.25124154546241  -18.53137801606066  -18.97882926010966
H           2.32097722197775  -18.18052960575939  -17.52483252362738
