56
 SCF done        -96.123945315223          0.000433204492
C           5.44547033545430   -0.22962020292958   -3.80756552435262
C           5.44842504459648   -0.79165741478519   -2.59258192803820
C           5.22376314192015   -0.14840011650858   -1.32744448477943
C           5.28805115857515   -0.97311236489083   -0.26189813830594
C           5.56600628592479   -2.33384213650539   -0.58707297438351
S           5.74283628200966   -2.51814280440574   -2.32116623599795
C           5.65608761320672   -3.39318281963200    0.27436787687787
C           5.44933816732646   -3.39332902360738    1.68214533035218
C           5.47062444791140   -4.62371894962825    2.24093537403686
C           5.67808204282849   -5.69220408279674    1.31163281996257
S           5.97729908758357   -5.02624137040141   -0.28940101672958
C           5.51128082293182   -7.00557717953523    1.59722043766368
C           5.60205765323314   -8.11162813608057    0.67954115691530
C           6.38622584909264   -8.19857497946129   -0.40591786732274
N           4.81828878932028   -9.20564193045695    1.08289175955201
N           4.53999313934310   -9.46067777491070    2.32514193064857
C           3.84883961853970  -10.64620736184969    2.29380798876848
C           3.35745785012817  -11.30525098106483    3.37824466323206
N           3.74016240774155  -11.07113760177920    0.99281276186793
N           4.34930690755281  -10.17206539647856    0.29025506676198
C           4.15624658352177  -10.07564428228826   -1.13173564517587
C           4.42125427619440  -11.17412218545402   -1.86304033857508
N           3.69690172978631   -8.93475963694538   -1.65143651603479
N           3.38954374345813   -7.94359550952407   -0.85275512663633
C           3.07410371943868   -6.80317296551927   -1.41974655938787
C           2.71850528913003   -5.69961621609749   -0.65080543626440
C           2.56802446702739   -4.37660029845982   -1.09128927379797
C           2.33263809080410   -3.48058882566513   -0.08053388217232
C           2.27233827172081   -4.07240930791416    1.19295718957766
S           2.47567883450780   -5.80973860545260    1.06968833286491
C           2.13317387939249   -3.44392247401142    2.42015470191759
C           1.98168512808398   -2.05883569108386    2.66790742590291
C           1.90277077968505   -1.73069963612911    3.98276927371620
C           1.98492742688145   -2.84769270583003    4.87266024179366
S           2.17517652204091   -4.33227719194384    3.92380036817695
C           1.93264748413698   -2.84227621051373    6.21488307192319
H           5.26048764232569    0.82353390931997   -3.92592537268575
H           5.62715986993718   -0.80464751716606   -4.69682513289991
H           5.02426560384946    0.90768146735689   -1.27953672662247
H           5.14629421405389   -0.66273390987333    0.75826787468237
H           5.26343838234967   -2.48372435523778    2.22496111946746
H           5.29961315747108   -4.82889503717368    3.28245831749080
H           5.18879314108396   -7.26581733922598    2.59546357012288
H           7.00231926983274   -7.36893168651192   -0.69554382975926
H           6.43345897379822   -9.07810815180265   -1.02165166299914
H           3.48750838264682  -10.89552994436018    4.35892212905448
H           2.83590641378555  -12.23145684700229    3.24944622060756
H           4.78419252355713  -12.07072755435771   -1.39934983187669
H           4.24115971635798  -11.16764567995649   -2.91992945651157
H           3.14546879222068   -6.67804029875296   -2.50044628423769
H           2.67490023218774   -4.10987033472072   -2.12771980299176
H           2.22490051813747   -2.42094259670830   -0.22905635772621
H           1.93435802348006   -1.34738830668527    1.86222006996947
H           1.78576294546618   -0.73109469391961    4.36193932513419
H           1.81524572146773   -1.92039462837019    6.75621519541475
H           2.00171360507376   -3.74980212421205    6.78559381172378
