116
 SCF done       -177.638219097023          0.000588149054
C          14.15983125747126   -8.29584020630695    1.16332738564416
C          13.39167284115648   -7.26507208131783    0.78757817355272
C          13.81659676514903   -5.95977145444983    0.36640890254867
C          12.80984574248419   -5.11901055883610    0.04664190585559
C          11.50790080982379   -5.68017373394666    0.18216452789822
S          11.62329189791956   -7.34158404291267    0.74157435150999
C          10.30568562794827   -5.07474721614189   -0.07234683736165
C          10.06825672006181   -3.75024637101262   -0.52654093176748
C           8.75843343995649   -3.45109645672789   -0.69285312083091
C           7.85145914946568   -4.51293099996716   -0.39074336896737
S           8.77955229827660   -5.91383168607269    0.14178690071089
C           6.50122952182731   -4.42836047237525   -0.54401507667666
C           5.48009967846962   -5.41005765805790   -0.33014026169144
C           5.71357463035285   -6.64891095890523    0.29026946239961
C           4.68547715027328   -7.54648865739365    0.42406727604676
C           3.39951228999775   -7.25126694005467   -0.05841722431374
C           3.14618644277956   -6.02311872875876   -0.65619535617675
C           4.17829310487849   -5.11910015093416   -0.77882586116283
C           2.53577179444651   -8.37604840249770    0.22087852734084
C           3.28223755458640   -9.36327460508376    0.89092423334151
C           4.72940332053686   -8.94066148407575    1.01267553610307
C           5.21977854590809   -8.94000907247890    2.46727609209907
C           4.39375212200185   -8.01533440051088    3.35432794808373
C           5.65362526740786   -9.77943162322417    0.09839826143594
C           5.71945066324884  -11.27029325126701    0.40191812504365
C           2.67035757141415  -10.50710081913611    1.34435275860511
C           1.30944538704437  -10.72001857578299    1.08190941337192
C           0.59666989734925   -9.75092310413006    0.36559228725125
C           1.18930196302291   -8.57510041024328   -0.04720110888945
C           0.61749004436825  -11.91929977950389    1.50856615742658
C           1.01397864306299  -12.76404221268337    2.47251251575561
C           0.30093751429193  -13.95816680191489    2.88307361026199
C           0.52043329132955  -14.47293029637266    4.16900893486607
C          -0.16609128524952  -15.58779751776684    4.58416663193651
C          -1.06669164412188  -16.23388591266048    3.72083330106589
C          -1.27392415392847  -15.74937146809608    2.43794277768486
C          -0.59482765350190  -14.61743228254033    2.03358825662834
C          -1.63839201692199  -17.36797641853596    4.41505975606380
C          -1.09969989130979  -17.41673396457756    5.71177060010886
C          -0.11631356971667  -16.28856099498609    5.92239805001570
C          -0.57121798170807  -15.35313457507818    7.05808115810697
C          -1.96612705021135  -14.78307339284118    6.83050587278051
C           1.29378658325514  -16.82501195037440    6.22901498142000
C           1.81979361616875  -17.75556224786470    5.14283205403749
C          -1.48889517309406  -18.39568694987606    6.59151364331801
C          -2.42733939682140  -19.36305554624272    6.19531578870806
C          -2.94926829911751  -19.30197964136180    4.89615154402270
C          -2.56550133646936  -18.31706688183935    4.00911449539707
C          -2.82265666008738  -20.36916029462034    7.15401082597446
C          -3.62401496704358  -21.42466980383431    6.91987470327601
C          -4.02652956087504  -22.41260676351522    7.88613498562963
C          -4.79226194109057  -23.52393670447650    7.44188557489293
N          -5.19284158143387  -23.74797977347927    6.19206163002459
S          -6.03617896930492  -25.11496020631273    6.15251338943340
N          -5.93288814520582  -25.49557079583854    7.71151404467376
C          -5.22617581699957  -24.55851928329088    8.34557378125372
C          -4.91861238705687  -24.48194127251164    9.72969787569404
C          -4.18520955235686  -23.37613406536171   10.12428860044888
C          -3.75028334125748  -22.38526688156114    9.24256576267036
C          -5.34647636037887  -25.50591529211616   10.67412274908056
C          -5.50585506090614  -25.22966131776229   12.05984933672848
N          -5.33248760339974  -24.07025911474987   12.69502842021513
S          -5.66969965034956  -24.26945122464682   14.25540568456267
N          -6.05114316079050  -25.82760152534293   14.21873543101945
C          -5.93511954580280  -26.26766832633374   12.96478846835932
C          -6.18660258974527  -27.56925079181008   12.50421083771618
C          -6.02151871131616  -27.80761702413001   11.16760092275715
C          -5.61686286100950  -26.80055904837440   10.27634286843417
H          15.23173336915685   -8.20690404002685    1.17313947122002
H          13.73649454752481   -9.23799033262366    1.45961232407136
H          14.86272655347422   -5.71261632343727    0.32392962287830
H          12.94842926021832   -4.10544208932891   -0.28662578228048
H          10.87540246083595   -3.06588003511691   -0.71842305130341
H           8.39277221997616   -2.49779641835054   -1.03345289236698
H           6.14694236562785   -3.47665684188074   -0.92461353751996
H           6.69185809938906   -6.88588647149188    0.67495616785168
H           2.15849994400147   -5.77939446147695   -1.01904838578893
H           3.99324401494770   -4.16126249600619   -1.24480494313978
H           6.26531057101927   -8.62555127838881    2.48612446831484
H           5.16561163395369   -9.95473209453982    2.86404587253826
H           4.45520765538671   -6.98849781186331    3.00087088326038
H           4.75996090021925   -8.04963247548611    4.37806670243210
H           3.34793010622403   -8.31592948690494    3.35143567452526
H           6.65820372261780   -9.35607661073343    0.16802918166775
H           5.31177008636944   -9.64754684072187   -0.93179110036635
H           6.05250176720340  -11.45365362367941    1.42003689310971
H           6.42997346929879  -11.74218829852840   -0.27360044068622
H           4.75121955190978  -11.74091308387367    0.25435000266598
H           3.22799176219035  -11.25022962013666    1.89227603810427
H          -0.44978667129428   -9.92325666715102    0.15544520113124
H           0.61502638396205   -7.82555486176054   -0.57155739239140
H          -0.32482186526661  -12.10060900107406    1.00727635188964
H           1.90625333528371  -12.54307036134355    3.04418989769660
H           1.21655709111267  -13.97304950906594    4.82834834592670
H          -1.95448335643197  -16.24846292321142    1.76394927922666
H          -0.74117151566154  -14.24482798889135    1.03101292499488
H           0.14516542324009  -14.53320099318704    7.14413077480128
H          -0.55589557465108  -15.90975127586839    7.99773636371001
H          -1.99916038295356  -14.20707897158784    5.90831648371436
H          -2.24327762616562  -14.12982539415257    7.65488367294476
H          -2.70090398089325  -15.58222622744577    6.76170947922571
H           1.26527514959396  -17.35932166756696    7.18125552071011
H           1.97408888638781  -15.97805254332399    6.34205319719599
H           1.16508316145785  -18.61625131381274    5.02521817027697
H           2.81402241607249  -18.11181946064535    5.40310855111428
H           1.87794614255147  -17.23671995268973    4.18854210585524
H          -1.07929225919189  -18.43376542793781    7.59155383590046
H          -3.67594793247295  -20.03474241744242    4.58205621926130
H          -2.98479885505305  -18.28557020408141    3.01429853842661
H          -2.40865506568768  -20.23248181825001    8.14513475496468
H          -4.01969398504563  -21.60210121149125    5.93017362587759
H          -3.93673163641660  -23.27552595834926   11.16862893759006
H          -3.18088333066473  -21.56431332558345    9.64998607136838
H          -6.49933342528935  -28.33208386789851   13.19828008789309
H          -6.20456704837461  -28.79646769260472   10.77401534118409
H          -5.51179276886785  -27.05038576125126    9.23312154702237
