120
 SCF done       -209.375366548828          0.000801130097
C          -2.85105145369960   -0.37657396704865   -8.80793432904591
C          -1.71160227910921   -0.65252549239596   -8.15947420467894
C          -0.49479942668214    0.10967146041125   -8.15750364540488
C           0.49464604315373   -0.41882024934724   -7.40557966340664
C           0.14945045499941   -1.63541533430970   -6.75048700181066
S          -1.50207623565019   -2.08247222008498   -7.13628703076251
C           0.94499522996005   -2.39114487827784   -5.92647065690800
C           2.28755702301708   -2.14052179930283   -5.53790265660731
C           2.80417535201733   -3.07539737666133   -4.70490603486805
C           1.91102289024503   -4.13696248580608   -4.36912727408428
S           0.37401371504895   -3.87371697756945   -5.18531829306615
C           2.24358695985487   -5.15948166215585   -3.52919352050412
C           1.49150680117299   -6.28468145629374   -3.07308727902630
C           2.10135336844831   -7.13408987614062   -2.12578250230919
C           1.42044619519994   -8.21575970766741   -1.63619742413121
C           0.11813426061721   -8.50584315211260   -2.08707394107920
C          -0.49171904031569   -7.68750004266593   -3.03322816926580
C           0.18977638949349   -6.59150177784924   -3.51120827961129
C          -0.35602029582056   -9.67251922706616   -1.39345104580849
C           0.64405183357973  -10.10753330930856   -0.49589254513377
C           1.88451263151408   -9.25479606351813   -0.63835587363699
C           2.32658228892740   -8.62364071962064    0.68988287844408
C           1.24563443062079   -7.74062040898613    1.30240050407555
C           3.04874003703820  -10.02845465645710   -1.30235124450317
C           3.53302843536030  -11.26545579512332   -0.55745346083948
C           0.40093404183139  -11.15015170576360    0.35952118530253
C          -0.83198285725681  -11.83249401600779    0.30144112020173
C          -1.79422125518813  -11.41353773247088   -0.63859609430988
C          -1.57568904210936  -10.33856965952391   -1.46718918178740
C          -1.14945270995615  -12.93484439313206    1.15074599772557
C          -0.41025419956747  -13.42167737612565    2.19007524068747
C          -0.81850145803275  -14.52244086405397    2.95419775836134
C          -0.13651466712704  -15.03243186307605    4.03453393403896
C          -0.50491266044056  -16.14782541337443    4.81863731045804
C           0.35668547309557  -16.42532330812141    5.83957048007186
C           1.44962231618161  -15.53771887605721    5.91956466452103
S           1.36052339114723  -14.34464590792214    4.65020403906039
C           2.47424076017051  -15.54238239922054    6.85440806360920
C           2.67046293679491  -16.44286562101895    7.91823853935268
C           3.76868525840400  -16.16463808973563    8.67974749685238
C           4.49395799547921  -15.02689715848268    8.25821222782190
S           3.73816751242278  -14.32856198760074    6.84378430063692
C           5.61947399216147  -14.51745556371402    8.86907929168255
C           6.34668625892558  -13.38573121473700    8.49401537647726
C           7.45627952524753  -12.86794051797055    9.15371000314871
C           7.98932887953248  -11.71540298554900    8.58118665395022
C           7.29221874608995  -11.31284992167135    7.43343302459877
S           5.96597183660559  -12.40053134298420    7.10369261743383
C           7.51987669498725  -10.23024483183474    6.58187650235990
C           8.48323403129337   -9.21235469176963    6.66645296274296
C           9.52276783971563   -9.01885645904080    7.67696988717400
O          10.27223914855661   -8.06440105052425    7.63649666501931
N           9.70134603914527   -9.92225383888675    8.71277155576987
C           9.15505137887699  -11.08953434578930    9.21157466551251
O           9.67060743722814  -11.57347508323766   10.19898903417676
C           8.38564705083808   -8.29104681915662    5.61943610486426
C           7.37910336301911   -8.56072180751920    4.71002800078671
S           6.51532075635489  -10.01089776021462    5.18068020218582
C           7.00398751323926   -7.87181738376279    3.54352009456217
C           7.57557382253777   -6.71359523283095    3.09014876481682
C           7.13747378251975   -6.11076742864137    1.90388227625133
C           7.61840587738087   -4.93084219183421    1.38357258432123
C           7.18991799008663   -4.29638827239280    0.16489891004720
C           6.29969100805433   -4.79244109790728   -0.76245459155938
C           5.89786979354469   -4.11463871295664   -1.92574466313545
N           5.50145310673883   -3.63282494658634   -2.89202953285684
C           5.66569724442176   -6.04508086394940   -0.70413793121502
N           5.10368757324900   -7.04769987484968   -0.76087934122991
C           7.88912587955978   -3.02082672996112    0.05153937191543
C           8.76215618554487   -2.88295185271422    1.15735228148828
C           8.63770307245264   -4.07469935210478    2.02706974325287
O           9.25241749761292   -4.27866838125997    3.05311462838759
C           9.56607307610521   -1.78500006256220    1.33319072807465
C           9.50486498777136   -0.77019125242018    0.37049848507498
C           8.62963372733729   -0.91654934544439   -0.73018119947613
C           7.81691882381914   -2.02965333126253   -0.90854247170362
S           8.71120910740818    0.45285329087361   -1.79815484139705
C           9.90433332775704    1.19252542081890   -0.76415165066651
C          10.22608691930824    0.45442411106764    0.32425436654972
Br         10.61131553368578    2.86943082854134   -1.22104207691957
H          -2.93546863446570    0.50538395828955   -9.41799275693509
H          -3.71042636024580   -1.01782171375216   -8.73941974534654
H          -0.41925653497295    1.02154872145239   -8.72304693662104
H           1.47053181255572    0.01924464220589   -7.29158924675146
H           2.82480133838607   -1.27696468547424   -5.88683828018349
H           3.80130992939543   -3.05529589714508   -4.30237763053898
H           3.25165260928095   -5.09652548690041   -3.13434747385324
H           3.10329964137767   -6.91725781506765   -1.78680654696604
H          -1.48834032735985   -7.90534239694742   -3.38744971438097
H          -0.28649551253284   -5.96027457537916   -4.24371075411679
H           3.22330049033393   -8.03023125020457    0.50520847782476
H           2.58138788661348   -9.41515288564876    1.39611124748930
H           0.99674808942212   -6.91852243680813    0.63485428739013
H           1.59044981984184   -7.32436051998212    2.24654970622708
H           0.33996545836290   -8.31442024827745    1.49039606547781
H           3.87863235415684   -9.32911741793051   -1.41271538556184
H           2.72762715994242  -10.32682284078239   -2.30414107455064
H           3.85064634471858  -11.02216368065697    0.45294581619527
H           4.38629376791032  -11.68841195466736   -1.08358302217468
H           2.75614526065097  -12.02479074643525   -0.51201968949502
H           1.14303135727897  -11.45360455404073    1.08032105140041
H          -2.73465439586598  -11.94430674718922   -0.68733628333922
H          -2.33650614804151  -10.01383803759664   -2.16119008655017
H          -2.09367901086532  -13.42572001977978    0.94345158111943
H           0.52651475818765  -12.95718690563511    2.46580134753209
H          -1.74175953794849  -15.01876265932083    2.68206738077245
H          -1.39539794301752  -16.71269734251532    4.60552323923021
H           0.23004765634725  -17.23625979780194    6.53369333875661
H           2.00561774665877  -17.26811773638824    8.09933424358858
H           4.07771336699751  -16.73963447870380    9.53449214452204
H           5.97826895568477  -15.04096423007139    9.74536792949637
H           7.87413719511361  -13.31151371214751   10.03930529089507
H          10.48611914986023   -9.62840716822852    9.29454001654615
H           9.05298197767828   -7.45161748110240    5.54356973236679
H           6.19416473167572   -8.30785715109834    2.97020493777172
H           8.37318804210030   -6.24301987626157    3.64278052222216
H           6.34822463940678   -6.62196825198939    1.36708081475357
H          10.22183380897831   -1.70865599085906    2.18623506705737
H           7.16612153432691   -2.09322836200148   -1.76456488726005
H          10.94212224857342    0.75898417676177    1.06554440487735
