127
 SCF done       -192.311877893312          0.000324496716
C          14.94355895311232   -3.46330410038645   -0.51313099102047
C          14.01554492972006   -3.63186220369918   -1.46408848118209
C          13.96083489238219   -3.01121718360568   -2.75776448525497
C          12.89841666440847   -3.37346587686703   -3.50792045480570
C          12.02382005417059   -4.30549483822874   -2.87948690968005
S          12.62064002927502   -4.70621123124536   -1.27705323088101
C          10.87171597513169   -4.84408436690244   -3.38930981378023
C          10.27761576753593   -4.60309905581649   -4.65649759387286
C           9.12564784460624   -5.28357990707740   -4.86286080837465
C           8.71183100923763   -6.11603040225537   -3.77788435284900
S           9.89731306317250   -5.98628932374362   -2.48074621399019
C           7.56254535358024   -6.84640472774899   -3.77773040924360
C           6.99478051266881   -7.69823873460330   -2.77596360549314
C           5.69018093810769   -8.18624815908692   -2.99361471678620
C           5.08791373243229   -8.97778836410211   -2.05157697478435
C           5.76800526480171   -9.32850648149088   -0.87094017586638
C           7.06104811008542   -8.87472783296309   -0.65177708071141
C           7.65917107236533   -8.06671856231008   -1.59570878287326
C           4.89375304905328  -10.14727507640081   -0.06159993774208
C           3.66803683823968  -10.29379281002165   -0.73339499847376
C           3.70057556254718   -9.57768718205265   -2.06374267529737
C           3.52648263414870  -10.56587791364908   -3.23218894719127
C           4.56751834899619  -11.67878786347614   -3.22496708554072
C           2.61740094052781   -8.48691850523353   -2.14527790446285
C           2.71609434910943   -7.47183623580544   -1.01291899400985
C           2.63963153114907  -11.00002623681479   -0.16107327867416
C           2.81401533969553  -11.59472272825268    1.09824472251846
C           4.04710985176100  -11.45166575952479    1.74642255046390
C           5.08211230065723  -10.73463393800147    1.18137112031226
C           1.69643922079665  -12.29835323884712    1.69095793684034
C           1.74582076082246  -13.12540378976919    2.74743777095942
C           0.61550690245960  -13.78684598053886    3.36497830411655
C           0.85759379177703  -14.85075447474880    4.24734366216508
C          -0.19448743152447  -15.48645850336796    4.85912563536336
C          -1.51356174138549  -15.06476103700461    4.62603054330275
C          -1.76763551821048  -14.00714457166697    3.76421092397108
C          -0.70659228970992  -13.38220348544766    3.14225381936729
C          -2.40668034322354  -15.90394835940599    5.39129679000335
C          -1.64327465051277  -16.85716300308432    6.09071683748099
C          -0.16639407538337  -16.62051671816690    5.86323401211036
C           0.52534208667774  -16.07487857996938    7.13494477248570
C           0.49920225258221  -16.98900614146708    8.35268859937325
C           0.54885584022780  -17.86369577511669    5.31641561932202
C          -0.04410221740174  -18.33545958731105    3.99358946341392
C          -2.26777533788713  -17.83243928811046    6.82728814553458
C          -3.67035446090575  -17.83971624842921    6.94463499463032
C          -4.40972351250546  -16.85802573034366    6.26604018218655
C          -3.79195479791932  -15.90732117030822    5.48305631504175
C          -4.28855149309353  -18.85086087867549    7.75613889652749
C          -5.58440243946419  -18.87275022519994    8.16170887850980
C          -6.13982941846160  -19.88045130115833    8.97246865008190
C          -7.42970184291858  -19.86155588776460    9.43530088971064
C          -8.06797530443545  -20.82736895834313   10.25216159300054
C          -9.35636088073446  -20.52801492042191   10.57454405861233
C          -9.81483889289345  -19.30486634547992   10.03488841374261
S          -8.55272151843026  -18.55074499948756    9.08683379069112
C         -11.05064610857284  -18.71198523661946   10.19652585752651
C         -12.15879752818391  -19.18829720053598   10.93016980005151
C         -13.23219013763669  -18.35374710249687   10.90679352109437
C         -13.04374037929233  -17.16224942614172   10.15423048805354
S         -11.42929940575281  -17.16216749936649    9.46845108707604
C         -14.00130596762954  -16.18900303355547   10.02559227489701
C         -13.96250197296209  -14.96594342404528    9.31340368120711
C         -14.99677169150404  -14.05615568679891    9.33930764717587
O         -15.06058269060622  -12.89052599357082    8.62069881622750
C         -14.09071896888718  -12.52199688309117    7.75577258838195
C         -14.19488754489855  -11.39658230299161    6.99541738726619
S         -12.81153820154862  -11.16760436321057    5.99752678058726
C         -12.08415447886260  -12.60469206081967    6.60842734105844
C         -12.87149592566714  -13.21604155765054    7.52917062190012
S         -12.46487306772383  -14.69807052103564    8.37499105303534
C         -16.17773652575294  -14.20337889553836   10.16276221690915
C         -17.21169992593101  -13.35909063779851   10.13388882309031
H          15.77508388794238   -2.79894297934642   -0.66914507764989
H          14.88971591647985   -3.97969183934661    0.42756931166328
H          14.72474936115667   -2.31884480659121   -3.06485193834484
H          12.70194078463395   -3.00530162992919   -4.49957235042419
H          10.72111118581154   -3.93164907794867   -5.36999617972532
H           8.53778882136838   -5.22165688620237   -5.76239337454513
H           6.96442931163070   -6.74449987576312   -4.67693053079726
H           5.17023555594952   -7.91555978245855   -3.90224040981837
H           7.59414667024975   -9.14506030387684    0.24749591493951
H           8.66506722812062   -7.72087556174192   -1.42246509328396
H           3.59381295664634  -10.01242962250823   -4.17150191990456
H           2.52768098530907  -11.00411730972439   -3.17337947271448
H           5.57086332043411  -11.26633094730788   -3.30475943887903
H           4.40312492382779  -12.35130022015110   -4.06392246344023
H           4.50632151766940  -12.25494437098855   -2.30437132784100
H           1.63575624174594   -8.96524021345377   -2.11925546384388
H           2.71111417123103   -7.97129435650147   -3.10364061992680
H           2.60936972951560   -7.96248150053537   -0.04797199128495
H           1.93101360381480   -6.72508703230437   -1.10898445095334
H           3.67854778860281   -6.96542644290089   -1.03458473583076
H           1.69152379700841  -11.10684857003449   -0.66998927679032
H           4.18574515331325  -11.89127554912071    2.72229169133037
H           6.02080130187500  -10.62545068873948    1.70426868750504
H           0.74765515720380  -12.12938172977343    1.19798852176208
H           2.70392662747526  -13.35870878235937    3.19367076935684
H           1.87603012374066  -15.16678925005353    4.42656398884188
H          -2.77933846257503  -13.67339064186339    3.58668722723195
H          -0.90107913881611  -12.54771312526791    2.48612699943100
H           0.04217972807412  -15.12981398476892    7.39760269153679
H           1.56372705173711  -15.85274096562426    6.87779817671394
H          -0.51998924665320  -17.15279317420256    8.69171577153741
H           1.05360852255119  -16.52250443336210    9.16457956938522
H           0.96104235046961  -17.94943571010163    8.13872859681112
H           0.47515398208529  -18.67060235582819    6.04692462907104
H           1.60705783439710  -17.63075847495131    5.17834142044052
H          -1.09731459882825  -18.58042292520625    4.11334165909322
H           0.47872258162568  -19.22200466143454    3.64137577643082
H           0.04226691542900  -17.56008159806902    3.23554644553958
H          -1.70007962004462  -18.60406760075754    7.32695519786733
H          -5.48631159357472  -16.86229237300017    6.33533923376782
H          -4.37857655157129  -15.17692414941188    4.94557615806111
H          -3.63634408358784  -19.64773518070290    8.09475795626421
H          -6.25408422712107  -18.07118779106885    7.88019969798289
H          -5.51685457675935  -20.71844143257290    9.25755615614632
H          -7.54979515475654  -21.71314149567160   10.57604310204173
H          -9.98686870682779  -21.14791207632181   11.18677782981575
H         -12.13459070896948  -20.12728245434670   11.45382091796897
H         -14.16271937026309  -18.55021583864683   11.41029931145316
H         -14.92214939030027  -16.41340181521373   10.54295640398773
H         -15.00480043107248  -10.69767024228711    6.97429026404813
H         -11.12099197644619  -12.91472986552023    6.26000302814050
H         -16.19748466242858  -15.03386158144483   10.84862968698980
H         -17.23553183491776  -12.51341939812886    9.47022485228726
H         -18.06072783363742  -13.50011869823046   10.77869949552471
