126
 SCF done       -184.730467557153          0.000158500863
C           4.58203682587914    2.62125105965810   -0.22635924471295
C           5.51052674077373    1.77194789834740    0.23232099347111
C           6.83836933820640    2.08250029763789    0.68167575600908
C           7.55193017460848    1.01511076872881    1.09861454850170
C           6.85791200248719   -0.22623146514809    1.01760906106447
S           5.24331126373024    0.02712111171779    0.37491005423163
C           7.32137705599588   -1.46300430960874    1.38219090617299
C           8.59059085531088   -1.78998386007621    1.92959586588201
C           8.74565459732850   -3.10403263394932    2.21405476625086
C           7.61455446896048   -3.92424827551653    1.91582294322396
S           6.34530845710889   -2.91390639343365    1.22765564110991
C           7.55644757110628   -5.25802877428050    2.18146502300050
C           6.50861451481913   -6.21171524772031    1.97116590214766
C           6.65338319434537   -7.48009657613089    2.56798976906713
C           5.67190160050326   -8.42349318570676    2.42016506982485
C           4.52442665688729   -8.15201512973088    1.65196123877892
C           4.37698295160553   -6.91390302602988    1.04128824848822
C           5.35787460090274   -5.95817224225544    1.20871422546014
C           3.66900092486679   -9.31827564547627    1.67572898167602
C           4.27864488728624  -10.30294264087533    2.47346384620268
C           5.61074973842007   -9.81863422857785    2.99599313036200
C           5.63627173323706   -9.79205331332443    4.53507567865777
C           4.50980275705322   -8.95482488863291    5.12876628163874
C           6.76688773229785  -10.69244247153069    2.47515250616000
C           6.81083495249076  -10.76759504162028    0.95378983660760
C           3.66570893697775  -11.50956772907526    2.69556820165276
C           2.41561656936153  -11.77266557026474    2.11432375469465
C           1.83917823257431  -10.79689972291639    1.28950155158504
C           2.44536307614352   -9.57537776703472    1.07300502268310
C           1.70765383958681  -13.00965095275518    2.35027292898074
C           1.95914943362881  -13.86200411209910    3.36327390245911
C           1.25451120272990  -15.07386390932879    3.61624583767857
O           0.29921040723483  -15.53327707148010    2.77234434920557
C          -0.18281715805991  -16.69171145662841    3.28203831697327
C           0.46876101648657  -16.97671839019662    4.46883382985154
C           1.39322592691785  -15.94731671001745    4.68885425313533
C           2.33109914807798  -15.81482660644072    5.83763440412618
C          -1.18713773269982  -17.40072645074563    2.55800895892485
C          -1.75916153223782  -18.53584516789055    3.00637199464765
C          -2.73920418259286  -19.35319588717536    2.33507047355821
C          -3.25555088912206  -20.46243592463314    3.02578126863060
C          -4.15756846910070  -21.29434252250277    2.41356588554994
C          -4.57254554637729  -21.05124262800697    1.09239675415837
C          -4.08274343096790  -19.95015911694049    0.40265750201613
C          -3.17735903423498  -19.11474337420852    1.02514726709386
C          -5.48620039181028  -22.10073619262695    0.69804595049365
C          -5.63907128601929  -22.99039756335773    1.77754958542630
C          -4.82055870725038  -22.53516492516139    2.96283432197365
C          -5.72136381583358  -22.19970440013515    4.16666030202047
C          -6.78835916953024  -21.16303172399403    3.83631142612428
C          -3.78374570008879  -23.59549460266858    3.37509223100437
C          -2.84671276968093  -23.97801605897276    2.23587193258560
C          -6.43962396029990  -24.09792698846387    1.67307247519277
C          -7.11831754516453  -24.35606960623578    0.46879748115523
C          -6.96056765946236  -23.45285054920354   -0.59576746898133
C          -6.15775583741735  -22.33601951201887   -0.49412271543546
C          -7.95518879588355  -25.50891749762822    0.28350301386307
C          -8.19687203989158  -26.48640081876922    1.19319245239924
C          -9.01720509177742  -27.60549411188747    0.94419633829111
C          -9.25846539315678  -28.59595316240998    1.85567695361593
C         -10.06099721366151  -29.75361161132257    1.67470280951786
C         -10.12044349822979  -30.57290829025066    2.75537453629910
C          -9.36887270346427  -30.11758868107003    3.86929919551855
S          -8.57939630109207  -28.60080255739668    3.48151338489393
C          -9.23427747568392  -30.71697757980546    5.09693882355838
C          -9.81639230878979  -31.94017216892086    5.53248738148797
C          -9.50931958930351  -32.28472264471512    6.80223403136061
C          -8.65290659955633  -31.35396088023283    7.48025790350351
S          -8.26808324132586  -30.01706072516183    6.38471291910499
C          -8.18891190155042  -31.42978863012797    8.73488667132449
H           4.78788663586048    3.67496317655178   -0.29369450556906
H           3.61072040039196    2.28369609993993   -0.53776483008754
H           7.19606168002490    3.09700919901009    0.67187902675544
H           8.56130961755921    1.06727426979683    1.46725365459432
H           9.34254594319509   -1.04034610005901    2.10015201316401
H           9.63749180769175   -3.53182522135134    2.63844310143464
H           8.44308680817319   -5.65993626200746    2.66015599116887
H           7.53745159220748   -7.68992293949033    3.15415096757012
H           3.50431391529757   -6.69600865371505    0.44375961687713
H           5.24222265133238   -5.00035178825627    0.72742456854168
H           6.59784255091802   -9.39093509251906    4.86297902289033
H           5.55965955203751  -10.81715117081666    4.90453223423563
H           4.57733173081329   -7.92434118243146    4.78721412517719
H           4.56825811018351   -8.96276836485539    6.21496635595173
H           3.54099419074325   -9.35072716446796    4.83225287255485
H           6.65677257936335  -11.69927332755308    2.88415672486268
H           7.70932090464326  -10.28271421168867    2.84548235542239
H           5.88904523171766  -11.19419962715821    0.56464410591694
H           7.64204665997370  -11.39158314979292    0.63292874564026
H           6.93753938813657   -9.77627275236653    0.52431043869394
H           4.14807422729916  -12.26136214673445    3.30158047952011
H           0.88376789409089  -11.00643598926684    0.82929021381747
H           1.97360992405000   -8.83350971490255    0.44563901648086
H           0.89078951574947  -13.23405978195211    1.67716229715482
H           2.73117985789230  -13.64494885673740    4.08693345750263
H           0.30423076510716  -17.82701714397157    5.09865433064371
H           2.21109547494474  -16.65551343198008    6.51578866120223
H           2.13903139923782  -14.89363175364438    6.38688487833800
H           3.36376369908975  -15.79242236913344    5.49062884108365
H          -1.46108095620020  -16.96440327406458    1.60861132573624
H          -1.45701311316149  -18.90167189249860    3.97910542830185
H          -2.92920847469709  -20.65252206585286    4.03881062222848
H          -4.39910535448359  -19.75213036929169   -0.61102859406839
H          -2.78874147978995  -18.26589739598969    0.48404099766114
H          -5.09370097321506  -21.82696337296641    4.97911321913650
H          -6.20269604095844  -23.11796665411634    4.50995548975569
H          -6.33102946608001  -20.23345545645621    3.50434328080436
H          -7.39322342655324  -20.95489114241810    4.71604511041918
H          -7.44288397006700  -21.52451079936727    3.04623393635549
H          -4.31195389786121  -24.48528252852110    3.72415425660468
H          -3.19831736069299  -23.20629508272205    4.21097783463869
H          -3.40825520021337  -24.38844862722058    1.39953339194509
H          -2.13345255316818  -24.72696314063229    2.57264550071312
H          -2.29474661393112  -23.10886795632176    1.88460652807891
H          -6.54572691919528  -24.77104998400695    2.50946247648526
H          -7.48423421145866  -23.64825478003497   -1.52128400434365
H          -6.05146007928194  -21.65981594848138   -1.32964886299455
H          -8.42604463114992  -25.59465248025042   -0.68897270921728
H          -7.74832419587112  -26.44268510543197    2.17642538963394
H          -9.48492819050142  -27.69520293720549   -0.02788732698073
H         -10.56697484605558  -29.93728867050402    0.74280827861984
H         -10.68083269575500  -31.49017207238805    2.78949127780544
H         -10.44514033214849  -32.52246896695389    4.88209298158878
H          -9.85662043809978  -33.17241421671434    7.30077256592754
H          -8.44870813617522  -32.26066249638667    9.36674538991202
H          -7.54924756544391  -30.67191636474046    9.14824803003330
