145
 SCF done       -223.201074062681          0.000275238095
C           5.57633481016264   -3.08918822870136   14.89996648843676
C           6.16799667579801   -4.25352603422724   14.60348875920135
C           7.30260157918863   -4.85164005281208   15.24915135842052
C           7.67924432099227   -6.04004716814407   14.73131239639935
C           6.88213398531842   -6.48544685789420   13.63792173414079
S           5.62123282795159   -5.31270271915662   13.29400490199100
C           7.02134419401899   -7.64534632718011   12.92198999329166
C           7.98415841689091   -8.67416179820330   13.09874629695167
C           7.85358076414607   -9.70550432345537   12.23164042816321
C           6.77922006734727   -9.57929231453946   11.29799430406680
S           5.95036475625328   -8.05284137828921   11.59292759638341
C           6.47058584739523  -10.52342000823631   10.36619993087440
C           5.43627918867478  -10.56072378385639    9.37609174203770
C           5.28653815831329  -11.74636471244121    8.62794616657795
C           4.29989285346815  -11.84073653011563    7.68187901989094
C           3.43886641939152  -10.75574554292656    7.43685492011497
C           3.58236033632676   -9.57626608902853    8.15363367037440
C           4.56953998703303   -9.48854444167392    9.11213062347368
C           2.49732024681223  -11.13702630075898    6.40870381864725
C           2.76689159151891  -12.46164264630192    6.02181357228395
C           3.94776850721081  -13.00971566218834    6.79023000536223
C           3.55703320585190  -14.24899518431828    7.61605095548996
C           2.40348693196917  -13.98020182511816    8.57480153980593
C           5.11212244598231  -13.36573107678139    5.84709902329646
C           5.55943444574729  -12.18869157481760    4.98880531813237
C           1.99471078944298  -13.08832036509042    5.07532437935513
C           0.92708338127204  -12.39691626358291    4.48429620666387
C           0.68853973230247  -11.06880631422657    4.86316778509304
C           1.45668871042993  -10.43504546158264    5.81847906105387
C           0.02059686876112  -13.00389075815088    3.53270416265361
C          -0.00120915743135  -14.28607621161802    3.13671355030774
C          -0.99270606660197  -14.85370483844632    2.24031563185514
C          -0.59593117938538  -15.86579417072128    1.36838872767355
C          -1.46353084101047  -16.41495937370917    0.44290175529331
O          -1.08181140256536  -17.50020203155298   -0.32888040863510
C          -0.04053110742898  -17.34522112191721   -1.18293833575010
C           0.56983223211176  -18.39063037963199   -1.73272655093787
O           1.45256397998624  -18.22027046913475   -2.79730193037196
C           0.68276665133377  -18.22489490594844   -3.93775279425024
C           0.68129855829449  -17.26421603952183   -4.85464369552972
O          -0.22330016054868  -17.22400597119145   -5.88825940824615
C          -1.55883710275090  -17.35287728520657   -5.58725818213693
C          -2.07871727089833  -17.23381814706067   -4.36838701537978
O          -3.40613170403658  -17.39394421998860   -4.08761384375071
C          -3.79940580672095  -17.21648152552232   -2.79234433717500
C          -3.18349606154381  -16.47698266984170   -1.87249380644861
O          -3.67375633595173  -16.34939614011147   -0.59844916064369
C          -2.77349348281437  -15.91812940057355    0.34354421312041
C          -3.19397756204981  -14.96600331712148    1.25892436101924
C          -2.34098274922343  -14.43354700939053    2.22126650365467
C          -2.84519218908928  -13.51300474249712    3.22632053224100
C          -3.85116122944090  -12.64465649279895    3.06036723395397
C          -4.33238803358226  -11.72660275937563    4.07696157798138
C          -5.63652790583729  -11.22356798743519    3.97336251661231
C          -6.11288442831972  -10.35927209149555    4.92903059271103
C          -5.29116475757873   -9.95098218342108    5.99195743495349
C          -3.99292658989204  -10.42871159998968    6.09665491766386
C          -3.52868390532657  -11.31613533416357    5.14650241708652
C          -6.03296563916131   -9.02071829895828    6.81372872948342
C          -7.32361619331966   -8.86977775043857    6.27411848073318
C          -7.49696318923189   -9.75863325768085    5.06205853359659
C          -8.46462711920051  -10.93281173459313    5.34185042141056
C          -9.90242568392370  -10.55085554404701    5.66705997830343
C          -7.91209376173563   -8.96558420311857    3.81477309585199
C          -6.89357834718847   -7.89283673664482    3.44604264136583
C          -8.21012642356979   -7.99093360450545    6.84539790869512
C          -7.84027108823771   -7.25606207120505    7.98669222376822
C          -6.55522916489138   -7.43751524568705    8.51911407677835
C          -5.65340827561185   -8.30522123811831    7.94071806075352
C          -8.81102197761731   -6.37018763697606    8.57247380096320
C          -8.56935450342747   -5.42550991355505    9.51501633829261
C          -9.52402594731629   -4.58506054321151   10.13662917367066
C         -10.89095085856690   -4.63730255499447   10.09879769884210
C         -11.74947801569063   -3.75121578762643   10.80978749040662
C         -13.07364468527842   -4.01844000489912   10.68964754868343
C         -13.36267547373711   -5.13713510892586    9.86703171090874
S         -11.87149753079548   -5.81980678743323    9.24245645524141
C         -14.59083618909393   -5.66748652629505    9.56290703040292
C         -15.86439906453506   -5.21308822989530   10.00735374621559
C         -16.90724296267804   -5.94273998147754    9.55506600740829
C         -16.54089188508854   -7.04121322448977    8.70702447806019
S         -14.77928559635737   -7.07439114432812    8.53003361045903
C         -17.35312777344877   -7.92949982980325    8.11886865671901
H           5.94196499135914   -2.47716275344538   15.70551115355890
H           4.72601606055766   -2.73040280460792   14.34977675688609
H           7.78380532636099   -4.35931724975328   16.07575940225883
H           8.50669770678597   -6.62470288103731   15.09314789993283
H           8.73859299974913   -8.61671332072288   13.86295377624234
H           8.49231752086307  -10.57169415168345   12.21965590653810
H           7.10592481928158  -11.40225521900422   10.38951279189651
H           5.95074319472267  -12.57794077063798    8.81867367418765
H           2.92932110821235   -8.73666090404335    7.96815654661676
H           4.67881474688926   -8.56906227039999    9.66315609514436
H           4.42955149111522  -14.58090336381123    8.18293542106097
H           3.27934394838684  -15.05349401858377    6.93140881498662
H           2.66550341746148  -13.19380836316279    9.27916284806354
H           2.16508070135975  -14.88079601456056    9.13621280871417
H           1.51548409648303  -13.66916814788789    8.02893595609183
H           4.79950981814111  -14.18799396287469    5.19961188757219
H           5.95386157967597  -13.71612747864841    6.44848338313383
H           4.74212558262040  -11.83764692087022    4.36265254166045
H           6.38369176695753  -12.48672931502626    4.34469795843962
H           5.89142523598783  -11.36252169166507    5.61363916660460
H           2.20536202608662  -14.10722897204133    4.78826505468393
H          -0.13018004593920  -10.53528535063153    4.39994981316333
H           1.24724672485272   -9.41463582139279    6.10277949038076
H          -0.72100276809165  -12.32894361891126    3.12360189213801
H           0.77440245820829  -14.96978170797505    3.45495963779821
H           0.41684952983810  -16.24227837679967    1.40780583500963
H           0.25144526631565  -16.32959091336996   -1.43480724478291
H           0.30410420951787  -19.41061088928352   -1.48553428539710
H          -0.05370008433452  -19.02352421281712   -3.98931052555355
H           1.41272543164266  -16.46919515272673   -4.88095701673948
H          -2.14945025642393  -17.50330380747465   -6.47618391995692
H          -1.43574269628839  -17.07454211650168   -3.51581375015249
H          -4.71812631719199  -17.74006905300384   -2.57712601932573
H          -2.29808466495609  -15.89137429080190   -2.08748700293175
H          -4.22496996757121  -14.65298916390959    1.21459455889450
H          -2.34577059957237  -13.56753088671789    4.18418534870915
H          -4.36327789544536  -12.59191022192247    2.10796185157900
H          -6.25931378858333  -11.53495663369550    3.14634672618329
H          -3.35244356049501  -10.11301048765580    6.90693320218212
H          -2.51509020649366  -11.68080929626969    5.22033787757386
H          -8.05740015861587  -11.50781937356988    6.17802600966347
H          -8.45855138919376  -11.58255403295105    4.46333393493417
H          -9.95473451961507   -9.98345996827866    6.59179408647962
H         -10.49375080215184  -11.45542520186141    5.79366879083282
H         -10.34969082597654   -9.96687131946758    4.86708721987291
H          -8.87667244574798   -8.49049239611409    3.99741791335999
H          -8.03063409492837   -9.65848530924061    2.97871482492215
H          -6.77279108281691   -7.18474663252856    4.26308646456513
H          -7.22346733911737   -7.34836189739088    2.56397895728484
H          -5.92419451328226   -8.33866445468039    3.23406210238526
H          -9.19153334078605   -7.83220341819247    6.42343955080621
H          -6.26625618821976   -6.89514163540819    9.40618037097133
H          -4.66500606031101   -8.42563541551214    8.35935408528161
H          -9.81507997062361   -6.47565011021510    8.18566672737210
H          -7.54907401713651   -5.25862326504419    9.83468682626635
H          -9.11961734386757   -3.80166271238374   10.76703010398873
H         -11.34503190271517   -2.94506544318870   11.39722392409029
H         -13.85159549703366   -3.45265208735772   11.17028623848535
H         -15.95788049465538   -4.35732867974736   10.65257221633743
H         -17.93992484358466   -5.75138109417464    9.78761885006490
H         -18.41862981835813   -7.87303135257274    8.25520160528961
H         -16.97226134659879   -8.72029450158128    7.49923633116907
