129
 SCF done       -204.743246481371          0.000929681586
C          -0.98823370289457   -1.91637048536069   -5.04962529014138
C          -0.71339219785357   -3.05591032758067   -5.69686987089637
C          -0.28910220428453   -3.21153709990884   -7.05974127206015
C          -0.08104348348950   -4.49021184922598   -7.43866036698372
C          -0.32096136312730   -5.45336831268769   -6.41723007123812
S          -0.83196880791290   -4.65248809521082   -4.94062300922395
C          -0.18341376709535   -6.81374153792203   -6.50447565777463
C           0.23360794768653   -7.58193636255066   -7.62385600667482
C           0.28979907229310   -8.91374846696078   -7.38797562812352
C          -0.07542034245611   -9.30900842644341   -6.06460631460149
S          -0.52005666097389   -7.87169466939281   -5.14608400745705
C          -0.02289136609819  -10.59037081677083   -5.60793673831435
C          -0.32568164941664  -11.12013699638884   -4.31153270489959
C          -1.01283121157391  -10.39590811903194   -3.32248384572442
C          -1.22969375238379  -10.96373010002915   -2.09331053571928
C          -0.77394590098779  -12.26170712361169   -1.80716149745520
C          -0.11956516425179  -13.00260135234060   -2.78283943048622
C           0.08778327371062  -12.43293636277717   -4.01984469590336
C          -1.08765085424158  -12.56292183274737   -0.42857342449165
C          -1.74898442087600  -11.45786736325930    0.13615431737965
C          -1.97527330278230  -10.38762565810187   -0.90777754380846
C          -3.46422615834752  -10.29658682426799   -1.31936044318758
C          -4.43959532632683   -9.95955943706274   -0.19931602228833
C          -1.42433402269597   -9.01914959179157   -0.48487418711534
C           0.04549463812765   -9.08570219002667   -0.08736222570473
C          -2.05256742215954  -11.44544214228696    1.47782305468518
C          -1.69068391329012  -12.53605067048407    2.27469947738145
C          -1.10490845296934  -13.65927724405955    1.68442978717527
C          -0.79517972556062  -13.68044502592363    0.34010247736679
C          -1.91124823873416  -12.48972532112472    3.71341416122359
C          -1.03641584358998  -12.90978745760031    4.63909644048606
C           0.32427224032674  -13.33193183072765    4.38688580537078
C           0.90231975597787  -14.36936764820504    5.13993448760576
C           2.23875763092725  -14.86098603030534    4.88068561100077
N           2.74398047653917  -15.84139324555888    5.65160187204969
C           2.00165113516138  -16.37066161064843    6.58875161319698
C           0.65548239635411  -15.91682791540011    6.81056622266542
N           0.15319264466421  -14.93843379887779    6.10456337921671
C          -0.13300125526036  -16.52275919370870    7.81953895894466
N          -0.74019811278591  -17.03746275207117    8.64387083791131
C           2.54112638735382  -17.39883907256156    7.39989054828929
N           2.93794546552572  -18.24344269043486    8.06540613248470
C           3.04662966704357  -14.31855605754037    3.86346464665993
C           2.49849350977481  -13.22437200856546    3.16873271485013
C           1.16378008132999  -12.73248771319779    3.43102951082590
N           0.86808708568534  -11.67829260828061    2.66376901372690
S           2.10101606408545  -11.37423635599658    1.69022503476583
N           3.09132312209647  -12.52912375851453    2.19026675115830
C           4.35815539138915  -14.84710943000364    3.52692049575264
C           5.37659606174332  -13.96852018926577    3.12925831174685
C           6.59251347616854  -14.47489265776688    2.74927820992810
C           6.82725036179765  -15.86094536920356    2.75266004345215
C           5.83313040579337  -16.73609949466151    3.17006683535402
C           4.61115621292593  -16.22424695714408    3.55477221557032
C           8.15066403790735  -16.10072302038055    2.22809439517839
C           8.74103682214847  -14.86260196787631    1.90690873015498
C           7.82925298017011  -13.72377470334933    2.30510327492007
C           8.36784792320224  -12.97422675713259    3.54689804470889
C           9.70568999762486  -12.26994431588679    3.36437741803183
C           7.54064012645752  -12.76286781770238    1.14335714356930
C           6.83680484812443  -13.45444380914659   -0.01860295229591
C           9.96503902737921  -14.82369661402353    1.28889630422052
C          10.64816997600954  -16.01933320940915    0.99525310039208
C          10.05963394380736  -17.24072484275402    1.36333227484738
C           8.82305688104596  -17.28851175259622    1.96806800349547
C          11.91253272148075  -15.93646256925475    0.32162135396888
C          12.64081031213222  -16.97267587712648   -0.16861068168871
C          13.86893466894354  -16.81284381992227   -0.83899523500544
C          14.59109699277290  -17.84423445263388   -1.37569072211499
C          15.82714104871269  -17.75577860082069   -2.06850855455894
C          16.31292664710816  -18.94581872618595   -2.50630930089962
C          15.49094927897975  -20.05698094484029   -2.18869380909814
S          14.07498574851898  -19.52517118288071   -1.30313221990358
C          15.70159932568384  -21.37851908812353   -2.49947099515309
C          16.79914087368698  -21.93507593744024   -3.21463164979281
C          16.73645622452872  -23.27464181312838   -3.37857003065369
C          15.57515146884756  -23.88960636549054   -2.80158627012502
S          14.57710518274734  -22.64198248182236   -2.03775041576175
C          15.24524234938639  -25.18818077027935   -2.80852547889789
H          -0.90257069542367   -0.96752190976268   -5.54890993106234
H          -1.30002225034562   -1.91062520280403   -4.02146775117241
H          -0.15934491128673   -2.35224728979246   -7.69357094833903
H           0.23833792418848   -4.78737760214703   -8.42196156506279
H           0.48453042650343   -7.12179662988519   -8.56286590497377
H           0.58960044707546   -9.64695400419376   -8.11652919734913
H           0.34004472320611  -11.31649171224991   -6.32671111514243
H          -1.37954122574964   -9.40506866985460   -3.53518586968860
H           0.22190332469091  -14.00645261725216   -2.57736935190901
H           0.59917043636366  -12.99784550542361   -4.78662395091692
H          -3.75097677009672  -11.25848635507703   -1.75300370164092
H          -3.54476063006512   -9.54288853687592   -2.10590596132466
H          -4.44080540736165  -10.73779380819003    0.55903990379363
H          -5.44508533618529   -9.88318679032796   -0.60798221909777
H          -4.19494289339746   -9.00980318359992    0.26855318340831
H          -2.00185786181291   -8.64177400027312    0.35949846678484
H          -1.54633859856470   -8.32157701231809   -1.31606623885046
H           0.17241063015929   -9.72445301556966    0.78420767611581
H           0.41336517824196   -8.09157878832394    0.15561741977326
H           0.64502868618065   -9.48532504129919   -0.90262074454252
H          -2.50683247706293  -10.58370717262659    1.94284846549482
H          -0.88250902054302  -14.51812530103503    2.30198950993107
H          -0.31734440904779  -14.54369616694350   -0.09978921319636
H          -2.86538513016654  -12.09530895572535    4.03943188325496
H          -1.34097776848827  -12.96685843506386    5.67551465549041
H           5.19124359935544  -12.90658240068659    3.12698505808605
H           6.00401390532707  -17.80202516043490    3.17831578786779
H           3.82277127033356  -16.89773336431811    3.85095525652221
H           8.46104185270442  -13.69833479875038    4.36067813733332
H           7.61447391504728  -12.24082340159451    3.84340434137290
H          10.49277300707069  -12.98588279070585    3.14410436060569
H           9.96856098069480  -11.75245811809727    4.28469143826590
H           9.66085604263843  -11.53411649600937    2.56569054087730
H           8.48086035744497  -12.33801435837553    0.78890541648228
H           6.91605629250988  -11.94496536757670    1.50808141631778
H           7.42948476769134  -14.29192717522319   -0.38131889612165
H           6.69040754920992  -12.75426754773518   -0.83809340686563
H           5.86388841206869  -13.82825223298756    0.29157379177509
H          10.41037648720179  -13.88466398601516    0.99366351720815
H          10.58234910618449  -18.16291881944072    1.16359150105499
H           8.37757868914479  -18.23744518166117    2.22693715339240
H          12.30099944612688  -14.93477695069259    0.17699992907581
H          12.28212965982600  -17.98828119604204   -0.07037673795118
H          14.27027736180661  -15.81326024436174   -0.94674522045705
H          16.31268502779452  -16.80729577235251   -2.21878604025700
H          17.23436756665375  -19.06078132043628   -3.04856878052274
H          17.59814713619802  -21.31608425197056   -3.58279210478333
H          17.47258121140778  -23.86783407512873   -3.89173475009338
H          15.88094353342958  -25.91340164198063   -3.28531291623042
H          14.34477114731648  -25.54558255533577   -2.34376620683113
