117
 SCF done       -184.869801663602          0.000837861003
C          14.99570039602403   -7.83410726356832   -3.61896131565607
C          13.78965009366657   -7.41565923733099   -4.02512268390258
C          13.49001744613588   -6.49209237032886   -5.08256975654797
C          12.17238536490981   -6.25938450944808   -5.26535089154286
C          11.31999432881460   -6.97340534637989   -4.37588365429531
S          12.27627919657458   -7.96166278616336   -3.28569692039383
C           9.94950605481539   -6.94283297884245   -4.32736773398855
C           9.06090143593459   -6.19779871814550   -5.14607381400528
C           7.75231781327634   -6.39042278528223   -4.85437727109471
C           7.49954386073915   -7.30256285007466   -3.78523762849657
S           9.04013247434663   -7.89036432991161   -3.16548686377630
C           6.25110409201670   -7.65555828699379   -3.36775278538971
C           5.82708078586088   -8.56214699763028   -2.34470228266558
C           4.44866500980140   -8.84888030777909   -2.25692184347075
C           3.98707602557916   -9.74007474287364   -1.32313353349347
C           4.87929870303853  -10.32339359314146   -0.40252002512006
C           6.23631592736089  -10.03685059977554   -0.46240038469461
C           6.70054811395338   -9.17622380290854   -1.43352257075854
C           4.12710541108457  -11.14729163224751    0.51495670488125
C           2.76916011056253  -11.08612840669499    0.15993604287600
C           2.57600668163041  -10.22374118938667   -1.07067602562792
C           2.07241729371695  -11.15379402684462   -2.19903654502980
C           1.97570807845558  -10.53184918877723   -3.58581621713279
C           1.60300246922695   -9.06327589245957   -0.81469123901152
C           2.01741776301671   -8.21323180421381    0.38106071308256
C           1.82551069360124  -11.78396772247866    0.87256306941214
C           2.21977669207094  -12.55663059214306    1.97409177909019
C           3.57416387332433  -12.58282414776292    2.33210441008720
C           4.52975796641749  -11.89627706767672    1.61180642574728
C           1.27764944102854  -13.33115853299458    2.75529644092508
C           0.05380892310425  -13.70955780147456    2.35427687670847
C          -0.88723240743994  -14.50508798939715    3.11528347066756
C          -0.76964528983466  -14.68239648457191    4.50095468749883
C          -1.68533468098894  -15.45726521309237    5.17201943268070
C          -2.76443522090557  -16.03225362584965    4.47995329412026
C          -2.89844119406783  -15.86182790499586    3.11049376323411
C          -1.95922277222736  -15.10386978175492    2.44258488085645
C          -3.60272166952110  -16.73543018310271    5.42647813323682
C          -3.03086261021688  -16.61675494680257    6.70527841362385
C          -1.77740812795883  -15.76241651111732    6.65637429796700
C          -1.96560870558043  -14.42378626369504    7.40088678994339
C          -2.13141822380637  -14.51733512556326    8.91230052104377
C          -0.59007048538318  -16.60243522577282    7.16891034296977
C           0.76739546444073  -15.91139072559305    7.20070562785643
C          -3.59363283968741  -17.28028392709962    7.76966798071177
C          -4.75798506300869  -18.03632990116711    7.58086093006416
C          -5.36785551169649  -18.06108005082079    6.32586144416746
C          -4.78362388174824  -17.43768138013148    5.23996517859971
C          -5.32881663244573  -18.80486633861819    8.68126052689892
C          -4.63071450735279  -19.53936800919298    9.56204400595581
C          -3.21533202905816  -19.81709802594369    9.49374700176736
C          -2.52679676322448  -20.00640499170891    8.27780793293543
C          -1.08584696885965  -20.09898331870896    8.21925093674560
N          -0.47782485657025  -20.11113707556679    7.01971632032258
C          -1.20216149442622  -20.08237123036147    5.92913297048656
C          -2.63245834869338  -20.17107684439896    5.99717672049370
N          -3.24411290131471  -20.13480637189823    7.15191420452494
C          -3.38580322388933  -20.32799106550924    4.80911904737163
N          -3.95190561594061  -20.45294277436593    3.82054815797147
C          -0.55724991564978  -19.97780725630944    4.67292217452580
N          -0.06443273311341  -19.86028553151936    3.64515284720402
C          -0.30685419964683  -20.14160640425642    9.38876534398691
C          -1.00450411464815  -20.10254477028072   10.60194197662025
C          -2.44054815479060  -19.93953946546782   10.65708526792028
N          -2.89067043552789  -19.90228169167323   11.91504299884692
S          -1.64691822303263  -20.05598864666418   12.91878001860708
N          -0.46766395299974  -20.16068038645538   11.83082187784724
C           1.14843171824678  -20.30478962291368    9.36299227432272
C           1.96635377661935  -19.77266151038407    8.44033042383812
N           1.76777694779235  -21.03923471362891   10.36940161184454
N           1.07682965883234  -21.72186774620778   11.14123784905649
H          15.89050079812280   -7.47671302235038   -4.09723674192995
H          15.10933938972211   -8.53313518103865   -2.81088782017456
H          14.28064186013041   -6.04456216295612   -5.65851734010269
H          11.77121444252544   -5.59673063234537   -6.01184773797077
H           9.41894811342713   -5.54802671363858   -5.92450232470715
H           6.93932493736695   -5.91187672647453   -5.37247596451141
H           5.44406866919883   -7.18923695305314   -3.92280359900659
H           3.77035332782689   -8.35280832619796   -2.93573567807571
H           6.92218174020261  -10.47985364481914    0.24402520428607
H           7.75456753908380   -8.95535983799425   -1.47435170156246
H           1.08733750222864  -11.52431426552044   -1.90613946057180
H           2.74564077348725  -12.01379767357841   -2.24800735080104
H           1.32994170994471   -9.65750054321190   -3.58534944708595
H           1.55567260072426  -11.25953188493166   -4.27720037658738
H           2.95818578356893  -10.24798827198070   -3.95261908154923
H           0.60462692381823   -9.47101243449372   -0.64196664078812
H           1.55869509810607   -8.43005516913313   -1.70191590584258
H           2.03949681947157   -8.81197961820377    1.28888530539395
H           1.31325641299172   -7.39644181465030    0.52383956364969
H           3.00817138739098   -7.79145512345736    0.22548559939120
H           0.78158427487832  -11.72406313126668    0.60454592922407
H           3.87390347634529  -13.17225236285372    3.18731202928307
H           5.57017128710818  -11.94026075296657    1.89773592060092
H           1.64728084304301  -13.65707088831315    3.71884379155103
H          -0.27744403025081  -13.45079532682567    1.35697692484530
H           0.02481468258824  -14.18174838887775    5.03091829710100
H          -3.72422351452381  -16.31038515862276    2.57938865354623
H          -2.04771243981712  -14.96573252440400    1.37431283059999
H          -2.84974176669044  -13.93808327602398    6.97870361691457
H          -1.10934169759442  -13.78620755793327    7.17363444205644
H          -3.04508488661442  -15.04438924764849    9.17220521271323
H          -2.19296095315412  -13.51425441145920    9.33016212301360
H          -1.28809271024020  -15.02387865709942    9.37475891948152
H          -0.51199206923114  -17.48174731066998    6.52333582271857
H          -0.83110757924672  -16.95732285187408    8.17425574345509
H           1.11706897337935  -15.70160933270719    6.19418826965128
H           1.49380763326067  -16.56648774900074    7.67865349051775
H           0.72960056492017  -14.98393657146313    7.76555503913636
H          -3.15093996217103  -17.24495664862580    8.75489789103462
H          -6.27700665330628  -18.62888629760349    6.19561970552460
H          -5.23203821954864  -17.51008980619584    4.26116923673500
H          -6.40516023174550  -18.75291277301352    8.78627676374531
H          -5.12975961576349  -19.96114519176421   10.42443363585627
H           1.59322890239190  -19.16918589641426    7.63491762163534
H           3.02155575220912  -19.97964784230673    8.47951101344008
H           1.66226777882408  -22.13881149878438   11.87495641743820
