99
 SCF done       -161.078337228204          0.000579105186
C          11.79618394424014   -7.36024750717173    7.30449569414290
C          11.62064607495915   -6.64880105015239    6.18355103471474
C          12.43917850080030   -5.57950624948259    5.68489881627641
C          12.01834525768781   -5.05024537809078    4.51658398246312
C          10.83824816230800   -5.64943387846851    3.98938859975703
S          10.27882713550959   -6.92339957921111    5.06101034561747
C          10.19462465360975   -5.33414154367372    2.82177556823479
C          10.55587911560004   -4.34930398370971    1.86390233116869
C           9.73240604556755   -4.29544374791854    0.79109917212607
C           8.65285954724553   -5.23118616570433    0.81081924169475
S           8.73996137339003   -6.16726890696152    2.30209953461498
C           7.75819043165041   -5.38360458004478   -0.20334820536425
C           6.65318613303345   -6.28675770489840   -0.33325664231368
C           6.11950368575197   -7.01681902779116    0.74248430834830
C           5.06488658062274   -7.86710165612619    0.52748590722144
C           4.52040973427160   -8.03314999573513   -0.75823718503389
C           5.02690891636490   -7.30798749389463   -1.82902769262947
C           6.07190143709096   -6.43888949341153   -1.60552667589662
C           3.44201794773147   -8.99187531076174   -0.68145940449221
C           3.29763816445543   -9.39960475118872    0.65698132062789
C           4.32866792283299   -8.72360418311264    1.53134544859473
C           3.67035275411925   -7.86253684488051    2.62469966388571
C           2.71760599101575   -6.81626908732690    2.05903304809686
C           5.27110378507781   -9.75150048188936    2.18531045448929
C           5.95203954659618  -10.65993536079767    1.16889136013422
C           2.31509789147179  -10.29074073176954    1.01101504863376
C           1.47240675218512  -10.82758576475850    0.02411660372377
C           1.64215870688575  -10.42380404997099   -1.30723423837540
C           2.60902835290322   -9.50720646828343   -1.66477167065302
C           0.44105465607560  -11.75984499176177    0.41202247339006
C          -0.17223469073126  -12.63672473477769   -0.40876953074258
C          -1.21976292613126  -13.49736117270573    0.01285693922154
S          -1.82113634322275  -14.75117689763476   -1.11382394145419
C          -2.95354954260648  -15.19084517435177    0.09311026014444
C          -2.80175560499985  -14.38257125260180    1.22184322253642
N          -1.83915335907372  -13.46586205968631    1.15703721440292
C          -3.81514234898650  -14.73331510189991    2.26661404482647
C          -4.56774571990253  -15.83382707192731    1.57819880351711
C          -4.02464608185868  -16.08699417004628    0.32336975531934
S          -4.84107476269793  -17.34880794175228   -0.50029301760804
C          -5.93156761724524  -17.55003408284361    0.85747870012503
C          -5.65590592864918  -16.65802920556840    1.86930517274537
C          -6.93477762530969  -18.58943705922902    0.84316260889903
C          -7.59914224726992  -19.01670551028396   -0.27643529602563
C          -7.46931102557548  -18.55100860637775   -1.68261371264092
S          -8.74136915257827  -20.26422901885334    0.09534505548401
C          -8.32259171887127  -20.23093757724882    1.77386948019430
C          -8.99465022666332  -21.15240646847436    2.72988047140347
C          -7.34938871824854  -19.30546560772309    2.02699901192272
C          -6.82255470519611  -19.06441024860816    3.36098129714905
S          -7.95118664668492  -18.68567611976379    4.63888662375467
C          -6.71262673325704  -18.40371378370853    5.75299512461728
C          -5.46916165065474  -18.58864170805847    5.19428328144926
N          -4.29948475248227  -18.37697068049447    5.94752802300767
O          -4.42447701860095  -18.14956709005100    7.13634443001577
O          -3.21661439454323  -18.42074406953468    5.37345085628926
C          -5.51536290295569  -18.99267969645512    3.81068741642840
N          -4.37876404556426  -19.26644337721209    3.11903291955751
C          -4.25368232864851  -19.92298951584668    1.91670273378881
C          -3.08817921840269  -20.05524826743055    1.29481578916690
H          12.62802651181522   -7.16028346583659    7.95663897920652
H          11.12122947133108   -8.14707318222357    7.58706833925743
H          13.30993427711421   -5.25807882323143    6.22872269814135
H          12.51262929119582   -4.24463181547346    4.00259519298336
H          11.41769681141022   -3.72018155671094    1.99827183152878
H           9.85523239557068   -3.61672269488737   -0.03516897095627
H           7.93094938299918   -4.74535928677925   -1.06287551599086
H           6.52172555017908   -6.88989346557475    1.73461814541534
H           4.60696985337274   -7.41808983416900   -2.81796356742375
H           6.47296583900160   -5.86569007501523   -2.42972971755894
H           4.45673664418075   -7.36618891089199    3.19704681022411
H           3.12450254507013   -8.51912298169578    3.30553023225427
H           3.24584110964877   -6.13562592458267    1.39492665592364
H           2.27623320276626   -6.23627693104161    2.86639215378986
H           1.91580172835802   -7.29049381049825    1.49705097980535
H           4.69427047454561  -10.35957686006885    2.88547318602814
H           6.03145173937852   -9.21289768493125    2.75467213713604
H           5.21525208292130  -11.22949247448087    0.60628205650309
H           6.61321941282708  -11.35827003042482    1.67671406881023
H           6.54302512527795  -10.07484034268438    0.46777334135582
H           2.18865730715549  -10.60057265649143    2.03861082118961
H           0.98095272969899  -10.81593400935209   -2.06480025560172
H           2.71305833013973   -9.19475340209241   -2.69336464446524
H           0.15291077627675  -11.76095885822238    1.45464895639731
H           0.12178378334408  -12.73673135809626   -1.44385253657382
H          -4.44998897366575  -13.88125897314372    2.51540469036020
H          -3.34082630036358  -15.07615641552019    3.18845814471606
H          -6.24280011622799  -16.58657366240987    2.76665594737908
H          -6.58875003683716  -18.98991938306582   -2.15399104467987
H          -7.36517533029990  -17.46778214159452   -1.72253270995544
H          -8.34563963889855  -18.84530867392802   -2.25562132677389
H          -9.32322346675165  -22.05262813656537    2.21555241205386
H          -9.87130771450237  -20.67631877533401    3.17162092301195
H          -8.31662518510680  -21.43083546646351    3.53483218694697
H          -6.91621945043195  -18.10878883109446    6.76310855839768
H          -3.51664139713308  -19.00117226132929    3.59087913543026
H          -5.16373142395940  -20.34745332427488    1.52180124898666
H          -2.18353436287063  -19.63195113434517    1.69633617150936
H          -3.01142214206371  -20.58773314564327    0.36664230412863
