129
 SCF done       -210.404286149371          0.000439243304
C           4.12824643692525   -6.52593934360809   17.05071437436499
C           3.75117661717550   -5.45733331447727   16.33692894552286
C           3.80270466669349   -4.07676659743626   16.72832195855838
C           3.34666622233427   -3.21312754844110   15.79626739245621
C           2.89608302026888   -3.82844628595595   14.59328910995844
S           3.08469933945042   -5.57125634977313   14.70041109458107
C           2.37629410351992   -3.21345121531180   13.48496197424467
C           2.15849367117541   -1.82630358292780   13.27242601849593
C           1.61160996818224   -1.53222938176354   12.06938767270861
C           1.35083373446132   -2.65941696024374   11.23113867453969
S           1.86590502411364   -4.12020626325339   12.07234432598258
C           0.76128884813025   -2.57783518423021   10.00647288182632
C           0.41673663824063   -3.60877473844977    9.07361043531063
C           0.83459640244659   -4.94383059232584    9.20638983011893
C           0.43967109900474   -5.87409259635020    8.28005788175187
C          -0.38321266646524   -5.51612641229211    7.19762187093185
C          -0.78949182732144   -4.19710190014407    7.04108564997930
C          -0.38304660173974   -3.26277179370493    7.96846058076713
C          -0.64687288557125   -6.69917188205083    6.40992135115482
C           0.02371660752004   -7.78742159721600    6.99750963448896
C           0.76967050710314   -7.34708834094935    8.23536408152362
C           0.25600111512028   -8.07193765958609    9.49316525070873
C          -1.24168309185182   -7.89154040095879    9.70863659190801
C           2.28554985293903   -7.57711828102215    8.09278402983145
C           2.87551028976376   -6.88666028335494    6.86908942098612
C          -0.05524456757223   -9.04214807306739    6.44752136240924
C          -0.82303314830467   -9.24498213396918    5.29052618069659
C          -1.50049424491932   -8.15363435859261    4.72876264133236
C          -1.41390602037443   -6.88685734662576    5.26887555584636
C          -0.94977554424138  -10.53708818612606    4.65772927861438
C          -0.18324603691472  -11.61749799317411    4.89721847572273
C          -0.33564637712538  -12.87907315222877    4.24183982948916
C          -1.32546213226094  -13.32302165192964    3.41368697351447
C          -1.12826256458447  -14.64206432351502    2.93766007165398
C          -1.94575570716294  -15.37977075413811    2.05679873854345
C          -3.13302216859218  -14.79075670011752    1.46853997584554
C          -3.27661625739680  -13.54353546194313    0.93535841037787
C          -4.58546733700997  -13.30065580560087    0.46245979655994
C          -5.44930084337279  -14.34210474740473    0.62882280073155
S          -4.63369533324235  -15.67279747527777    1.38178574076158
C          -6.88466209481094  -14.43251842526649    0.25917560874879
Cl         -5.03530413785129  -11.80264456790684   -0.26192710112444
C          -1.54323298216239  -16.67611464031274    1.77729765406039
C          -0.35820720178237  -17.26079685436419    2.28290143782224
C           0.47237861908874  -16.51717938868119    3.14058170523982
C           0.04974558743675  -15.22763199104518    3.45837636229992
S           0.89241398835572  -14.10879359141277    4.48931638969405
C           1.72311689025813  -17.03466324760513    3.66011994431611
C           2.25092692285641  -16.85602174960103    4.90568670288702
C           3.52848094436984  -17.44078046285561    5.04785698399692
C           3.99729448473109  -18.05870613399756    3.92694506059403
S           2.83131523318165  -17.92923567095722    2.65252797770517
C           5.29106241968323  -18.75687828126081    3.71729810637384
Cl          4.40938698126359  -17.37131973110656    6.52639041348726
C          -0.18070208765188  -18.59180785135706    1.82148864854437
C          -1.17159336416349  -19.00722363217231    0.98905115473757
S          -2.38765138442095  -17.77636898884774    0.71144852614795
N          -1.31798235412987  -20.23844426597801    0.42952029175557
C          -2.23511658138357  -20.49804775162674   -0.65791044819299
C          -1.85634636853182  -19.75606909300778   -1.94519507495743
S          -2.26527128839913  -20.86630149802959   -3.31796483554728
C          -1.65445631586400  -22.26243329134630   -2.33713121757097
C          -2.17217729371273  -22.03249350903386   -0.91312593889003
N          -1.31745555267787  -22.55743191183008    0.12479826985886
S          -0.06430307005623  -21.41170809494872    0.38897767875829
C          -1.10401233932282  -23.90472638033619    0.33034965149618
C          -1.71862860266857  -24.90698342002629   -0.29857428973841
N          -1.45708646658574  -26.25819500860423   -0.05155001224484
C          -2.51941750682805  -27.22968272131894   -0.20740462057636
C          -2.03704854602924  -28.42286165034995   -1.02918564774231
S          -3.04489985329732  -29.82948741694578   -0.49244984822107
C          -2.85069234959527  -29.27894988551105    1.22606171130301
C          -2.93837631643738  -27.75148883636341    1.21691865113937
N          -2.02706101225470  -27.16758798973796    2.17006827817713
S          -0.59491521294501  -26.73952267794860    1.34281501224557
C          -2.43272927983684  -26.49575699061629    3.30628630330386
C          -3.58796660917288  -26.64721440723321    3.93900908688565
H           4.52650688063141   -6.41023607634249   18.04333220042311
H           4.04541920616770   -7.52405228936991   16.66176632397497
H           4.18084439619572   -3.79642612859554   17.69563202984920
H           3.31332403409946   -2.14532732691446   15.92306910821008
H           2.40908882844858   -1.09430519138808   14.01937389103880
H           1.37344566347994   -0.53600182252260   11.73881796578873
H           0.48240865590755   -1.57490073927687    9.70278556346506
H           1.47430196405322   -5.23367201796886   10.02361217687099
H          -1.41260332616865   -3.90692180171047    6.20803626047613
H          -0.69521894660870   -2.23376775804386    7.85767023755013
H           0.79493247414603   -7.68673364034761   10.36119175098226
H           0.48345756756241   -9.13619651299112    9.40177074865091
H          -1.48746057045332   -6.83830514932610    9.82442101814340
H          -1.55614821013339   -8.41860207492793   10.60645981970390
H          -1.80270600803784   -8.28461682855841    8.86335645724142
H           2.47180067348421   -8.65123401401975    8.02756925753190
H           2.77987968856584   -7.20568414877927    8.99274021206674
H           2.40941351751917   -7.25480005100938    5.95757554894841
H           3.94466348325753   -7.07757975436519    6.81069269664051
H           2.72026686190816   -5.81142087855542    6.92357371585052
H           0.45374887356755   -9.87327890660683    6.91096590184446
H          -2.09694060121553   -8.31403365752673    3.84156002761233
H          -1.93811711036401   -6.05963589138023    4.81359093817160
H          -1.72324059915913  -10.60661262196766    3.90399846379566
H           0.63390478807684  -11.56383564904732    5.60255793443246
H          -2.19351614708894  -12.73930601764133    3.17141919077027
H          -2.47497628413166  -12.83455057781357    0.84121364849509
H          -7.21407232729751  -13.48773210784982   -0.16605931772507
H          -7.49251026725150  -14.65880735250466    1.13445542247151
H          -7.04283678623713  -15.22410219307168   -0.47275468402384
H           1.74394141560474  -16.35664346263660    5.70993699910138
H           5.92565372878040  -18.19142245180581    3.03442154981366
H           5.12984096742613  -19.74368355983547    3.28611522925791
H           5.80799497814233  -18.86190986784245    4.66804775459653
H           0.64242969151375  -19.22558820464872    2.09283524511270
H          -3.23749271278335  -20.20079052092890   -0.33234936330492
H          -0.78132147232516  -19.56105226341909   -1.96810628467595
H          -2.39839476392347  -18.82268916729010   -2.06841459746181
H          -0.56199827781039  -22.25121473016573   -2.34954954756994
H          -2.01197534979480  -23.18631063458417   -2.78191283172960
H          -3.16521095820451  -22.47619438829149   -0.79484469122574
H          -0.38250448163392  -24.10169032688545    1.10990788815259
H          -2.44209528180883  -24.74913575567220   -1.08290692581875
H          -3.37785425041417  -26.76367505024861   -0.69746276472279
H          -0.98916048436793  -28.63349086072925   -0.80826407374283
H          -2.16467919408773  -28.27580061667626   -2.09793918196679
H          -1.86723030790758  -29.59377599692707    1.57974598542518
H          -3.62134533316855  -29.74229226543330    1.83564008787051
H          -3.95538996191002  -27.42232751495565    1.44543801525437
H          -1.66523958798665  -25.83881984526377    3.69075542092778
H          -4.36014719306926  -27.31666401182675    3.60494171431412
H          -3.78579625051693  -26.09386064469892    4.83711442138644
