98
 SCF done       -175.292486105897          0.000468107837
C           3.79476873704191   -5.48533881002778    8.31994883969411
C           4.08344060119832   -4.85264455630745    7.17499878180286
C           4.30619411473443   -3.44728938670185    6.97982625819124
C           4.57332549212813   -3.09779604465536    5.70360888568162
C           4.58126243684071   -4.18584402545101    4.78201067394404
S           4.24440506098385   -5.68370084657079    5.61955913608234
C           4.81113882657377   -4.13880641228866    3.43014746313351
C           5.13473652619156   -2.99450273058017    2.65412600183246
C           5.31995356659127   -3.26379857876899    1.33782487416646
C           5.14895499650594   -4.63388526899669    0.99801775851270
S           4.73586518680378   -5.57414663511500    2.41093164436629
C           5.28984712192316   -5.21141017520830   -0.23368989988115
C           5.08097067577925   -6.59474876444079   -0.39043757754213
S           5.36795411714656   -7.45016917811152   -1.91647743561019
C           4.90872831697681   -8.89666249454717   -1.12753879450399
C           4.56826908615500   -8.66832449616005    0.19018249579429
N           4.67689990592851   -7.37035290176792    0.56564110257147
C           4.11031860693060   -9.67039558180393    1.10684653502346
C           3.68100584491986   -9.36261668428346    2.34834390157342
C           3.19291943121252  -10.30298931547247    3.29334818579023
S           3.35518763521768  -12.01191298851876    3.06687102645935
C           2.54206231384812  -12.34786504149341    4.57890810459182
C           2.19186963249660  -11.15974076378911    5.22326483890432
C           2.55001402617523  -10.02181386477196    4.49561507359058
C           2.24458964677908   -8.61987987369684    4.93509135861798
C           1.45111887742695   -7.91036306137173    3.84517354017907
O           0.48282856885162   -8.36752128157373    3.29843335045708
O           1.94513869691519   -6.69480964724404    3.60978098117101
C           1.31614378361791   -5.92014620446743    2.59830060640383
C           1.40616693236716   -8.60303209502947    6.22165030005754
C           1.88521146432518   -9.68181949884774    7.18432924017306
C           1.59744803813995  -11.05941398883585    6.59111317458865
C           2.36904649465425  -13.69730232789969    4.93685721025784
C           1.48388260280077  -14.19731691503816    5.85677486649112
C           1.35977780443854  -15.54411484460794    6.22534848434540
C           2.22475307387248  -16.59507619457624    6.00023706310498
C           1.99049206290969  -17.93158139150895    6.39812972230360
C           3.01786600234240  -18.79027204808239    6.13422968673263
C           4.12750460425622  -18.17305936462549    5.52322198138617
S           3.81527882048912  -16.47830628906284    5.26532775135373
C           5.33655012004213  -18.75483366855141    5.16413302253965
C           5.71549740319765  -20.10371999908283    5.28351053536396
C           6.99575637122407  -20.35182036374344    4.87053995885529
C           7.68376529484579  -19.21111503903826    4.41092174963232
S           6.64876550237732  -17.80607911336034    4.50100123060367
C           8.99597470856070  -19.16424616156402    3.96564201920215
C           9.61768413478181  -17.99762876022513    3.55065690669816
C          10.93798601778001  -17.90560262733086    3.13823757236890
C          11.62169338918085  -16.71637876380027    2.71312203587762
C          11.09877248997337  -15.44709223773475    2.58764114779839
C          11.83745952666400  -14.32686158642234    2.16373138905653
N          12.37942232661871  -13.37174285767432    1.82373680826055
C           9.76741714304585  -15.07316678039946    2.85142444523360
N           8.70600833494430  -14.67259589558555    3.03960260698620
C          13.00844561430407  -17.07983288577546    2.41827829180738
C          13.16790847417373  -18.46777303823772    2.64343499080417
C          11.87812393743958  -19.03639311069048    3.09620834354979
O          11.67274400358199  -20.20420896480523    3.37297902951105
C          14.36210396198314  -19.11735328195086    2.45808328441024
C          15.45821197347215  -18.35894642299743    2.03013540944280
C          15.29002952893182  -16.97402369384906    1.80836562510234
C          14.07870043601986  -16.31683066789221    1.99469194352771
S          16.77095444345132  -16.22572463127179    1.28718258230859
C          17.58279092760900  -17.76625242374138    1.37459263692996
C          16.78977945514012  -18.78814609262011    1.77209587311963
Br         19.40387561737156  -17.87937064310775    0.93400567739381
H           3.70684598021650   -4.93950913915935    9.24264243784797
H           3.64777340856127   -6.54927533819350    8.35710974678263
H           4.25539971382744   -2.76354074046024    7.80862697295073
H           4.76359347012538   -2.09025596170518    5.37871535926877
H           5.23148170336726   -2.01548606601618    3.08915068867983
H           5.57747915698802   -2.53309945007156    0.59125015886022
H           5.57539535248274   -4.62056413591415   -1.08904946877693
H           4.90388028982008   -9.82924675829735   -1.65433467040104
H           4.09776883909127  -10.69084250754339    0.74994545005865
H           3.70135416841242   -8.32501383303422    2.65072284313647
H           3.17716358282023   -8.06987326471605    5.09010662440022
H           1.47868685951809   -4.87568364581484    2.85504308131881
H           0.24984583281481   -6.14931910509648    2.55638739875336
H           1.77456811967389   -6.14406241862457    1.63303939146955
H           0.36002503095978   -8.78964743485794    5.96778155680067
H           1.47634649921422   -7.61450702584280    6.67815813593383
H           2.95829207461382   -9.57229579642934    7.35412719801709
H           1.37477357207048   -9.58104641814499    8.14344741623837
H           0.51399181563715  -11.20436558379687    6.53298013421148
H           2.00986801257077  -11.84359707867655    7.23009171346813
H           2.95858588234150  -14.39537548925897    4.35797938455347
H           0.76557032930627  -13.52513846068061    6.30137883397918
H           0.47648109560043  -15.80209373947382    6.79757968264158
H           1.06811148384764  -18.22063379646177    6.87089573320140
H           3.00890428745024  -19.83694899214536    6.37859907651033
H           5.04796887713472  -20.85511540579824    5.66561546058406
H           7.46509241507775  -21.31923750548298    4.88827074050390
H           9.55563610491017  -20.08830109371717    3.95904210479261
H           9.02222654053836  -17.09280591081588    3.56413993296293
H          14.45102579171961  -20.17724145898854    2.63851284258017
H          14.00453613770119  -15.25802399097726    1.81219441942662
H          17.12671669631825  -19.80298216923526    1.88061730970301
