83
 SCF done       -153.780208587682          0.000367015189
C           4.39477382364233   -2.57087243803304    0.20354198962882
C           5.10578829715887   -3.51836597908533    0.82977019613954
C           6.13690060033655   -3.33831365083235    1.81105426683455
C           6.68296596912543   -4.48779501399599    2.26662286031804
C           6.13731465303406   -5.66791188082001    1.69152656486561
S           4.88477230237453   -5.25190059532120    0.53483708207511
C           6.48677818535009   -6.97217360350785    1.94643843939570
C           7.46907858728356   -7.45758347668084    2.84704741972355
C           7.57647005435806   -8.81199020872385    2.86337062206063
C           6.68854841792947   -9.47784308155553    1.97897336667690
S           5.70326950585328   -8.30729477938591    1.12559527662343
C           6.59388815785060  -10.82615840262895    1.75496194469594
C           5.68925488075371  -11.41061665817845    0.85497781506983
O           4.74266355643514  -10.66879698037601    0.22195138510344
C           4.07109624692662  -11.48083818590623   -0.62313955598201
C           4.57473735836502  -12.77172032893694   -0.54469345595509
C           5.59696663836569  -12.73569970521364    0.40537407493869
O           6.38714557484395  -13.74035680975854    0.84036195529236
C           3.03024867236620  -10.95297669538392   -1.42127733009397
S           2.37266931329788  -11.85293704889473   -2.76476751483790
C           1.27877179606204  -10.54836006815051   -3.19545385396600
C           1.43241760038933   -9.49923449536307   -2.30793771686907
C           2.41109774217470   -9.72297644429258   -1.32028294355443
S           2.63147911042703   -8.49960987223642   -0.09609030439896
C           1.74677548302158   -7.21772925306665   -1.04535627988382
S           0.59076088303239   -7.96966560485745   -2.24122610828272
C           0.45584186830705  -10.68370287680501   -4.33489993966185
C          -0.51397696564758   -9.81119743479917   -4.71258087631538
C          -1.24935396975525   -9.92588247103265   -5.91554763409908
S          -0.82231887556952  -11.11081545841575   -7.11305609599670
C          -2.02819062733492  -10.51095859880286   -8.18196927704174
C          -2.71914402791169   -9.45283230516716   -7.68664932783106
C          -3.84199295829987   -8.82162726479000   -8.44159562287794
C          -2.28997067793658   -9.09995868013365   -6.36431673658501
C          -2.88402046091587   -8.11255715418115   -5.52255276577336
C          -3.53678607363875   -6.99074841092699   -5.93029983427485
C          -4.23024034578794   -6.09778706350994   -5.07715779872789
C          -4.62174561319991   -6.35223740656233   -3.79225335670721
C          -5.39783389581476   -5.43173626761461   -3.06874024895243
C          -5.93387602692203   -5.65402247874514   -1.82339187650246
C          -6.79103253406177   -4.75676697778808   -1.08177747099238
C          -7.13107902853474   -3.46703091340342   -1.41235293582172
C          -7.97592404384960   -2.64740148969624   -0.63755376629527
N          -8.65725467340480   -1.92929014803992   -0.05481887426036
C          -6.68633821290291   -2.76464843899283   -2.55026021533267
N          -6.37219067367294   -2.11514186433149   -3.44482958543841
C          -7.24073979332481   -5.46055427420408    0.11678648181987
C          -6.63844958668901   -6.74127336302227    0.14434219753268
C          -5.78231216362106   -6.90455427088996   -1.05041327146223
O          -5.10920771491404   -7.88011309318144   -1.31817284683082
C          -6.87238971580390   -7.64947361677670    1.14709100052385
C          -7.74919374612954   -7.27874064798557    2.17247299932374
C          -8.34763115242322   -5.99805839838002    2.13616280528755
C          -8.10691300202961   -5.07733125529242    1.12346961228019
S          -9.40280228424671   -5.74665142923319    3.49481486852781
C          -9.03067820093755   -7.34533962500012    4.08302591428429
C          -8.16101022474120   -8.03260399409520    3.30600951984260
Br         -9.82657033861247   -7.95633264931712    5.66846174837702
H           4.56524894929151   -1.52969518459985    0.41280567177305
H           3.63972703701542   -2.81406760447366   -0.52113730820310
H           6.42204789810316   -2.35166038795205    2.13050586869726
H           7.46678397227896   -4.53743790042997    3.00168793010767
H           8.06336533140663   -6.79577401736344    3.45141192069592
H           8.26515180550020   -9.36349922899147    3.47907565754304
H           7.26256033125188  -11.50152693430934    2.26590489311945
H           4.22625957777444  -13.61551722363232   -1.10631799333851
H           6.14927253757879  -14.55622487614524    0.38439828259614
H           1.18302808138658   -6.59341663080479   -0.35625651411945
H           2.47598512829932   -6.61547764291839   -1.58834446039268
H           0.64452371905995  -11.55807702293682   -4.94435828225561
H          -0.73750064804791   -8.96309275976765   -4.08170620467435
H          -2.16547255820719  -10.99164200919531   -9.13083121101465
H          -4.17593074238043   -9.48910683846109   -9.23276335091156
H          -3.52209576148228   -7.88798766972319   -8.90383438284030
H          -4.67846014875122   -8.61187522124455   -7.77815072336794
H          -2.78269200442285   -8.28407458242752   -4.45947715234388
H          -3.51170586477257   -6.71727975271384   -6.97435496144682
H          -4.52643593123525   -5.15067275801421   -5.51390599115357
H          -4.38463564825768   -7.29335392491330   -3.32118128976089
H          -5.61709068923530   -4.49264329084483   -3.56124482157585
H          -6.39774701328156   -8.61821151757054    1.13881101998456
H          -8.59098077160559   -4.11541690824323    1.14125259997622
H          -7.82351425775701   -9.03030652982812    3.51998381753078
