131
 SCF done       -194.657233898659          0.000634589854
C          15.24188913448810   -4.46343299697052    0.29294853952101
C          14.28840546263323   -4.28482320061716   -0.63073825792902
C          14.36867913593654   -3.51099821821912   -1.83754526628311
C          13.24267229762296   -3.51734097273744   -2.58265036019257
C          12.17898455362357   -4.29053098744249   -2.03645488739252
S          12.67913012156164   -5.01399227259213   -0.51582184798849
C          10.93153429662507   -4.48879159257118   -2.56753200489084
C          10.40646585912335   -3.98105518313568   -3.78545951182002
C           9.13664976599880   -4.37338028497459   -4.04368369421518
C           8.55316013338182   -5.22284716517928   -3.05446999983834
S           9.72413928651438   -5.47431184214357   -1.76153421622492
C           7.30826054945940   -5.76525631911853   -3.15461687557676
C           6.60249228325201   -6.64452687898825   -2.27098311890402
C           5.41700961902810   -7.24201876032617   -2.74537688190168
C           4.72688950787435   -8.11944987053025   -1.95127773437568
C           5.17660455427542   -8.41286276800013   -0.65080918074502
C           6.32628952224531   -7.81131335836711   -0.15895245227535
C           7.02809927854937   -6.94223066465026   -0.96721717762381
C           4.27451652857225   -9.37250388990883   -0.05636253520003
C           3.27316677699624   -9.68597117842744   -0.99076409685745
C           3.46783913223745   -8.89554833397649   -2.26443086926371
C           3.66486300496865   -9.82095436684713   -3.47849421338681
C           4.82773091280928  -10.78926561606399   -3.29841934280009
C           2.27802752009503   -7.95209415411134   -2.52111995200337
C           2.01896555732599   -7.00061123160144   -1.35925365954819
C           2.30674203980482  -10.61402788001688   -0.69174281100193
C           2.30893827428931  -11.24998999597812    0.55947324539430
C           3.30315917812814  -10.90947987131487    1.48580483727220
C           4.28124361036035   -9.98272568553422    1.18981552931987
C           1.31656059588300  -12.27038083866962    0.82319797742782
C           1.06304212468315  -12.83274211284664    2.01528900687294
C           0.14985381121020  -13.92568047672493    2.27119899909898
C          -0.19198010925543  -14.23698660541285    3.61008493431380
O           0.31926292280498  -13.42281920611650    4.56765248930209
C           0.03169416731684  -13.68377871318307    5.92643045767200
C           0.77372084423056  -12.64804645102434    6.75728202676244
C          -1.03637458135873  -15.30258010035579    3.86713808204853
C          -1.52000632809187  -16.11743252340470    2.84524250781344
O          -2.35963605862404  -17.11167923073201    3.24969816090294
C          -3.51728432507914  -17.41073722864762    2.48583587607050
C          -4.72996559369668  -17.37608500813103    3.40882700589760
C          -1.13152349871462  -15.87396362471537    1.51593990253535
C          -0.34592772551071  -14.74752775835126    1.26959819125549
C          -1.40344700791977  -16.77072662355837    0.40868303209599
C          -1.34097798983384  -18.11848929324335    0.49874370782855
C          -1.52784837473920  -18.99933828607866   -0.59134218005491
C          -1.35443033097563  -20.35209018346274   -0.51417676149300
C          -1.50650313454815  -21.30468549053640   -1.55678585746762
C          -1.22918069470454  -22.58463736967181   -1.19476910078076
C          -0.83485330302277  -22.73031906715178    0.15714446935100
S          -0.85617625415716  -21.17230588448650    0.96340917871499
C          -0.44719532096742  -23.87554989643712    0.81252218182507
C          -0.35459182887352  -25.19383744145576    0.30347328679907
C           0.09781880323905  -26.10218492235014    1.20384061216613
C           0.40086947590266  -25.57528940348267    2.49436167153060
S           0.05006543621517  -23.84725354806727    2.49329352951001
C           0.91159590211496  -26.31129292462020    3.52038578982501
C           1.28454193634038  -25.91827432874184    4.84561310965406
C           1.96067686931251  -26.85611264467641    5.66761748524362
O           2.20417329868853  -28.07418345036189    5.11825876382539
C           2.89041129894401  -29.05896978100582    5.86265447266169
C           3.02280790428094  -30.28927937863558    4.97819246267554
C           2.34136281117713  -26.50558780145893    6.95396438228616
C           2.07244066542499  -25.23974739511968    7.46532213862196
O           2.43146881777449  -24.84161646823481    8.71203732469048
C           3.11982128280272  -25.73071415538974    9.56587775803382
C           3.38634791875745  -24.99659809107737   10.87110041876651
C           1.39679224767506  -24.28978450322735    6.67009851594599
C           1.01943962993430  -24.66180874893775    5.39062265416047
C           1.10947076459177  -22.96948340402401    7.21666144958221
C           0.71175392802136  -21.90698659156784    6.52679007854523
H          16.20699976540464   -4.00149074692169    0.18183888582462
H          15.07763963691286   -5.06771460852489    1.16605857369719
H          15.27207381125703   -2.98460612466873   -2.09068718048091
H          13.12905527438348   -2.99242227230751   -3.51493966779106
H          10.98859184739845   -3.34782931951333   -4.43106353809693
H           8.58090635744830   -4.08986115134203   -4.92078596248949
H           6.77816512075829   -5.51587273904040   -4.06747139813638
H           5.07445413361923   -7.01339315289364   -3.74523425480814
H           6.67251523705936   -8.02223107418664    0.84179242067989
H           7.91589788781425   -6.47115929713324   -0.57808837374477
H           3.83852086521083   -9.20585901523701   -4.36435407686429
H           2.74444937566766  -10.38625704692060   -3.64079660778641
H           5.75900463720603  -10.24677991968698   -3.15116981475955
H           4.93121442705123  -11.41999777082329   -4.17866552982314
H           4.66355785635914  -11.42800517080155   -2.43341015433727
H           1.38552125390560   -8.55572742129054   -2.70057634920055
H           2.47826914441215   -7.37384827421427   -3.42604570542829
H           1.79391854810598   -7.55683380849071   -0.45200436548563
H           1.17480352584758   -6.35285242078651   -1.58535832262915
H           2.89117707505342   -6.37817908920469   -1.17170158267873
H           1.54100562713771  -10.86691331423289   -1.41232853535988
H           3.31967563350196  -11.40028879235822    2.44643517585363
H           5.04703225163373   -9.74531477224528    1.91358164793711
H           0.75010365700358  -12.58365689966005   -0.04455883323976
H           1.56825842763002  -12.46963228232413    2.89801476561455
H           0.36158664055303  -14.69643817194970    6.19528310518932
H          -1.05006412910751  -13.60726414537600    6.10374897203037
H           1.84330810075593  -12.72885970608840    6.58305493609527
H           0.57163231997393  -12.80581279842494    7.81274537271985
H           0.45187058948813  -11.64867392208630    6.47695871251074
H          -1.35446873107386  -15.54487141686902    4.86826018519383
H          -3.40922873670896  -18.41060501355066    2.04833938203911
H          -3.63726687944144  -16.68812116997819    1.67196192344737
H          -4.58744558467303  -18.07527129390194    4.22805755983756
H          -5.62270762337527  -17.65298760040619    2.85498722097808
H          -4.86161378173874  -16.37875574650088    3.82162998241052
H          -0.05183654376302  -14.55817138638530    0.24842397495598
H          -1.54786536269897  -16.31153365006496   -0.56203826235950
H          -1.09654920440681  -18.57298539649654    1.45070239207077
H          -1.80958481631374  -18.57990942032375   -1.54854678454417
H          -1.81289515107732  -21.00305057764744   -2.54344493819356
H          -1.28850720678258  -23.42889085554619   -1.85882291164888
H          -0.61951423690973  -25.42679536063892   -0.71268965001548
H           0.23730828019749  -27.14808868020413    0.99185928717335
H           1.09064687593888  -27.35442552390263    3.29516041893738
H           2.32816562922882  -29.30699980336035    6.77400172620857
H           3.88555036180373  -28.69153100471259    6.15005960512318
H           2.03768941869376  -30.64886687705765    4.69381946640305
H           3.54948094786754  -31.07499317756104    5.51209534806882
H           3.57413167148090  -30.03849514590862    4.07608202098844
H           2.85642499342829  -27.22536438143890    7.56814167134196
H           4.06927919176571  -26.03932748645282    9.10599522020973
H           2.51054156084570  -26.62629135223621    9.75356728624064
H           3.92275018933559  -25.64482830137018   11.55813687451001
H           2.44665106405446  -24.69412994953941   11.32492305029748
H           3.98059503400896  -24.10735196208327   10.68004482563492
H           0.47344879549602  -23.94843980609750    4.79941985119585
H           1.26225652289397  -22.88665488869722    8.28394266320028
H           0.56524095865462  -21.92184036983497    5.46026308072878
H           0.51731856936381  -20.96763467820015    7.01541381911455
