98
 SCF done       -211.259387735637          0.000894044096
C          -3.06364491139432   -6.42658253929210    3.58990747282722
C          -2.43491281994859   -6.48487603679131    4.77036699927401
C          -3.01251896834232   -6.73550619680339    6.06215173205252
C          -2.12536133818474   -6.73251330098248    7.07829122016565
C          -0.77813302306457   -6.48122031018167    6.67851351225323
S          -0.68754282891018   -6.24940264201885    4.95033960823771
C           0.32898277918997   -6.41205898675487    7.48833728692525
C           0.39797704516803   -6.57620925195906    8.89738882579393
C           1.64654904989894   -6.43349246229440    9.40290593245331
C           2.65179660449762   -6.15500912424603    8.42837082085472
S           1.92576470644874   -6.09976141631947    6.84013336681300
C           3.94977251434380   -5.85456191305646    8.73550481658610
C           5.02034637480786   -5.51719663083868    7.86086908627463
C           5.95672583721847   -4.51250279962270    8.22220546819576
C           5.88219268032518   -3.77228775860738    9.49621948014719
O           5.11939796534614   -3.92067733174753   10.40669890224683
S           7.15561632911867   -2.51238755747235    9.52797633957799
C           7.78886209710758   -2.96955942958183    7.91230479942950
O           8.73116262469602   -2.41979818135124    7.43074734864345
C           6.97099729516432   -4.08058396110734    7.37237875387834
C           7.13083129583346   -4.61312462490096    6.08051829643819
C           6.26349630355344   -5.66114294033967    5.74903551861201
C           5.26685852463446   -6.12637821213420    6.60165356512744
C           4.61607066455453   -7.35028724465371    6.13458785406890
O           3.79924628737356   -8.02736822406603    6.69105653202812
S           5.24971793933251   -7.77824502018468    4.50020469747136
C           6.39768915100344   -6.41590637032267    4.48524065164153
O           7.15089323700420   -6.19925898211505    3.58034588137621
C           8.08042320455390   -4.11933787340651    5.09896014540743
C           9.38939659885613   -3.96477780939852    5.30464872139719
C          10.29868275945256   -3.46567630715104    4.29081197231757
C          10.05237891513298   -2.30992975996249    3.52979886578470
C           8.90341051724266   -1.39372592782727    3.72049150649343
O           7.98057792148681   -1.47502996130662    4.47130466606338
S           9.07313870605369   -0.00378796732555    2.58805271169910
C          10.58117110325804   -0.63562490182643    1.86361734783353
O          11.16252690674678   -0.08331192124967    0.97718631166878
C          10.94816119678103   -1.89099930658481    2.54872184202092
C          12.14693093806915   -2.56411047064817    2.26542063331274
C          12.42264431066233   -3.68104515269604    3.06719500707237
C          11.51423375953785   -4.12023957988523    4.02991564154733
C          11.89666948887609   -5.37630403897363    4.70732211635099
O          11.29676953279033   -5.97224664555279    5.55207447988333
S          13.46002867821347   -5.94154983230085    4.04505301264559
C          13.63092148803089   -4.52823847150864    2.94403309760112
O          14.60640778396007   -4.36396832091075    2.27898602750173
C          12.98016086066573   -2.12639067586702    1.15882460829725
C          14.27772002364383   -1.84109763956982    1.23879582641483
C          15.05659546588398   -1.38645369820576    0.09508944126015
C          15.69778992720191   -0.14090853487456    0.12229765402500
C          15.53320729811269    0.78605169259338    1.26167929040766
O          14.96910670048677    0.57998207501256    2.29562901792578
S          16.31324637720132    2.33746173756554    0.85819402325328
C          16.78187994349933    1.78017646991991   -0.79793152510435
O          17.20563056541793    2.54736790346785   -1.60879314631653
C          16.45612626274710    0.34936434566616   -0.93469749666010
C          16.72296619168992   -0.44193408744671   -2.08447506530399
C          16.02861371687960   -1.68150961653577   -2.12534746663479
C          15.20789054544031   -2.12140873410955   -1.08863190265321
C          14.57866736964237   -3.44330408253232   -1.31959203895067
O          13.78465342164435   -4.02781916975891   -0.64725843460062
S          15.17869769039913   -4.10397657422579   -2.87220771641959
C          16.15428157377718   -2.63864646283442   -3.23657057268522
O          16.78669882041901   -2.54406675315517   -4.24828220532327
C          17.59905647226594   -0.05544746346852   -3.13665577752063
C          18.71387431973181    0.71969563899537   -3.00427348484551
C          19.51938385965002    1.07820479074912   -4.09335964492129
C          20.63234747472461    1.87764250947041   -3.99806774283038
C          21.45737206982588    2.30601587403099   -5.07088288741071
C          22.47937213010949    3.12061875348895   -4.69932120564497
C          22.52375790887131    3.38456724146722   -3.30752535673738
S          21.21668646508361    2.54922017805303   -2.49069423826251
C          23.42187887673525    4.17677241477665   -2.62955467110801
C          24.51090591379128    4.91063326815078   -3.18440771827483
C          25.22413151421664    5.61386145915845   -2.27907283542279
C          24.75171876615367    5.49023280742085   -0.92875881257080
S          23.34319158766484    4.41575160259120   -0.90120258676179
C          25.25179861353078    6.06927509330423    0.17056714683700
H          -4.12719301999572   -6.57539304038693    3.52471132048852
H          -2.53266810255771   -6.23175866134652    2.67603626773295
H          -4.06917547749624   -6.90738239727912    6.16571221742352
H          -2.37988926533573   -6.90242247465541    8.10909459198146
H          -0.47434263263821   -6.79215555229636    9.48742022790181
H           1.89841261215203   -6.51480763353561   10.44507991275877
H           4.15791118214141   -5.75146501723861    9.79189688890165
H           7.65985776568693   -3.93576468830773    4.11953673400305
H           9.84411820144855   -4.27693652179594    6.23334289562512
H          12.45140368166050   -1.98073910500089    0.22625397694927
H          14.79915595487533   -1.86421263634960    2.18494340898928
H          17.39658883453489   -0.47982836042355   -4.10922974305749
H          19.03099422231265    1.06433412179353   -2.02963671608660
H          19.23739819813136    0.73007562893355   -5.07796329558385
H          21.26002098187209    1.99689475869141   -6.08204338370345
H          23.19747658581090    3.53932907516465   -5.38110958970242
H          24.72199075089574    4.88852523307227   -4.23855594881554
H          26.07769603803255    6.22681974054389   -2.50773862372624
H          26.10919842332999    6.71613670323157    0.10933040222093
H          24.81834911158807    5.90952216204050    1.14082710414840
