102
 SCF done       -175.124021610211          0.000613689958
C          12.93223837014128   -3.99429478542205    1.28018543455378
C          12.31761964834440   -4.28275932155785    0.12441304117155
C          12.82096081281032   -4.10773660022342   -1.20706948716223
C          11.96860294203846   -4.49619585787768   -2.18266440525225
C          10.73033779704730   -5.00901037007451   -1.71059815292260
S          10.68753357364178   -4.97183656935796    0.04122675184564
C           9.67806333440537   -5.48379978586534   -2.45981561886801
C           9.55668766153232   -5.53643730538461   -3.86743946607356
C           8.37293521062280   -6.05387805371498   -4.29802292107390
C           7.48256789206558   -6.42401681278301   -3.26355746788314
S           8.23079916529472   -6.13142088638261   -1.70721095959238
C           6.25356036449857   -7.01620491181512   -3.43689716383016
C           5.30576595160128   -7.34710272154755   -2.46416031797697
S           4.30548227971578   -8.73767189436738   -2.78911900827295
C           3.62642598055584   -8.76660490622019   -1.18800176719590
C           4.15341611592612   -7.69220481834002   -0.42552859185821
C           5.02583682862284   -6.84319215160589   -1.17198719120131
C           5.43224339912616   -5.60273966063009   -0.60855227641935
C           5.93956483269668   -4.49079840244502   -1.45547541389224
O           5.62985654493800   -4.39266419621279   -2.62387028774659
C           6.76034745548104   -3.42270586000443   -0.76765081885470
C           5.15988279375838   -5.37289974256243    0.72565103665447
C           4.47478156945842   -6.30772962392047    1.50580017593841
C           3.94265090346392   -7.43646314640963    0.93733644887504
C           2.70988466922541   -9.78188930097996   -0.90010647761022
C           1.84217389162813   -9.87614213502395    0.16239717109409
C           0.99716097755929  -10.96781901841139    0.39135977248474
C           0.04714400414621  -11.05722237327095    1.41222488079052
C          -0.57680623267359  -12.31336957094997    1.36019327405618
C           0.04825722019360  -13.00659943117757    0.23457940853868
C           0.96805347330708  -12.22362163866886   -0.35260209400921
F          -0.27785483725450  -14.25271941655131   -0.14748796221609
C          -1.57606308188469  -12.82969764756056    2.18400913224548
C          -2.13162669620137  -14.11732364705229    2.17436718834422
C          -3.10062635786188  -14.21266586462627    3.17717158164836
C          -3.17690579305018  -12.91832388371567    3.84683323394989
C          -2.26748714930085  -12.12092579875690    3.26176275925105
F          -2.01624081149734  -10.84300608476401    3.58688426023701
C          -3.81203289425093  -15.37196665362432    3.48954762913870
C          -4.83171934019319  -15.47360477303165    4.40618571629685
C          -5.47783949734986  -16.66785494998061    4.73076046496148
S          -7.12801729093971  -16.60948202197542    5.27870351063284
C          -7.37158122111399  -18.32446308963519    5.05984177963331
C          -6.13865569932977  -18.94697268992761    4.71992438445533
C          -5.06646314750915  -18.01666338260581    4.57836578085560
C          -3.74667937589290  -18.49040801182239    4.39286925325939
C          -2.54438331106940  -17.63660708261520    4.62144276217145
O          -2.47023918333388  -16.90083523596860    5.57653280267400
C          -1.39462813077499  -17.83320937894941    3.66174190335661
C          -3.54973054169314  -19.84625177317700    4.21256035707811
C          -4.60905529155465  -20.75013521580886    4.30476392087835
C          -5.87903984067187  -20.31909376826717    4.59771035831534
C          -8.66794957817606  -18.81217237954278    5.20482061452954
C          -9.15108093087845  -20.04667972533126    4.82305916442309
C         -10.46151985104546  -20.46111392519771    5.02036444181657
C         -10.92982042941302  -21.70630193324063    4.64091952613972
C         -12.22979439370223  -22.22498951494995    4.80425303647018
C         -12.38696274389234  -23.50472991548739    4.35336712551755
C         -11.21302922016904  -24.06613324729491    3.80788598582426
S          -9.90245720123900  -22.90813682602387    3.87936660421740
C         -11.03063102679164  -25.32980552730370    3.28348022411643
C         -11.98996882396808  -26.36958308295205    3.17377789393715
C         -11.51594346531740  -27.51040895204596    2.61936217326215
C         -10.13413476572751  -27.45565984757352    2.24431793760735
S          -9.48673360814947  -25.85821425541383    2.64870274635338
C          -9.39344598858456  -28.41954197182864    1.67691626306533
H          13.92449059891287   -3.57894169089806    1.28495353680131
H          12.46102915708265   -4.16747924852120    2.23017773865335
H          13.80171564840970   -3.69842853700389   -1.37278755481035
H          12.18396097143179   -4.43770838897144   -3.23489589598152
H          10.33650514218624   -5.18655658971541   -4.51954054105603
H           8.09697523324196   -6.16180216877702   -5.33207685852962
H           6.03408505008839   -7.35350716541424   -4.44315181563222
H           7.34399133300029   -2.89322808886529   -1.51722581346628
H           7.41841868641782   -3.84109334956584   -0.01198091195447
H           6.08623419936468   -2.70456691082408   -0.30226474954744
H           5.45410580657149   -4.44125069232329    1.18141302412374
H           4.32514045652503   -6.11095373186475    2.55654919484642
H           3.37951169423526   -8.12922146911749    1.53893329918321
H           2.65357732203114  -10.55847149801452   -1.65206501946385
H           1.75415901193968   -9.05755924851531    0.86134869926780
H          -0.16545677343771  -10.28697559718603    2.12779547927777
H           1.57751732716782  -12.47399239269555   -1.19807572548304
H          -1.85470003449123  -14.91161381368538    1.50891084984864
H          -3.82443822597302  -12.67015121925457    4.66403138605792
H          -3.54941684576659  -16.25525990819882    2.92086549229403
H          -5.23379578443406  -14.57039002691330    4.84368534063464
H          -0.85821656588175  -16.89349215808483    3.55314460345525
H          -1.72916628765483  -18.19194654046501    2.69264461071438
H          -0.70265646630887  -18.55808326194047    4.08898779638829
H          -2.55004540485654  -20.22663202070899    4.06968110753961
H          -4.41286229039208  -21.80614679599133    4.19735714428744
H          -6.65644489050062  -21.04279665235423    4.77088614924959
H          -9.38225921047393  -18.11216791313322    5.62298330037820
H          -8.50417472901791  -20.73913642955843    4.30645080758664
H         -11.16055072359006  -19.79409363712019    5.50760243867588
H         -13.01425589045914  -21.63992707362248    5.25171633443199
H         -13.31071489824977  -24.05278799517376    4.40188502753255
H         -13.00202269095672  -26.23605251544472    3.51273044516511
H         -12.09417877893448  -28.40256737855475    2.45737126051900
H          -9.82335077396281  -29.37806869343865    1.44639454249290
H          -8.35772828440604  -28.26716586997329    1.43518321347041
