97
 SCF done       -169.006743622640          0.000761303167
C           7.54801737100375   -3.53079935946655   -7.85843643550318
C           8.24178550378423   -3.93371250558000   -6.78523564301774
C           9.65846595774387   -3.86535335076327   -6.56970671347573
C          10.06821203984704   -4.34751757179455   -5.37422030380969
C           9.01904050687970   -4.83292755126750   -4.54793757579781
S           7.47700690313824   -4.66002979893193   -5.36469122546997
C           9.11037035859936   -5.36197497634120   -3.28146143080405
C          10.25517690175710   -5.54999107901998   -2.47375270178469
C           9.98508333015143   -6.08160510845842   -1.24868849725195
C           8.61516221532614   -6.33385287174938   -1.00530348480253
S           7.67808798692047   -5.90129244180866   -2.42210858391706
C           8.07628089363111   -6.91718916096479    0.11760055280148
C           6.72040390695990   -7.14042728375067    0.37403081127010
S           6.30119969306094   -8.56242173786732    1.29788961320974
C           4.62854858938342   -8.49871322635529    0.81710778809984
C           4.37421905820180   -7.29377598953113    0.11300915653379
C           5.54570885278780   -6.50281086536648   -0.08949730452282
C           5.41387085203255   -5.17848055747125   -0.58719390439234
C           6.51434401280265   -4.18643751040329   -0.46007246008131
O           7.33505117241725   -4.25776907826867    0.42915363964982
C           6.50206966517813   -3.01903423964018   -1.42246969692087
C           4.16722046081429   -4.75924389707165   -1.00953089973684
C           3.03638737924914   -5.56739292759132   -0.87626428262854
C           3.12215880269110   -6.79910768804137   -0.27885217595509
C           3.79942969092674   -9.58050290222500    1.11898239064576
C           2.64333349615803   -9.91642595974353    0.44890156212959
C           1.81428471351714  -10.98194241995188    0.77922121860722
C           0.72161675523519  -11.34639249333311    0.01301857680520
C          -0.21389450796523  -12.37178945960075    0.24614967398029
C          -1.17871509651522  -12.49032786572708   -0.71833758270220
C          -1.04502472930660  -11.56663783433406   -1.76952716791293
S           0.33290922872676  -10.52383786550721   -1.48765266222059
C          -1.79279811300039  -11.42663776040491   -2.92614243237222
C          -2.90036337315399  -12.16123055237509   -3.39102938263076
C          -3.34404388463958  -11.79090287540839   -4.62854327493525
C          -2.60147574856342  -10.74142127291282   -5.21903458320616
S          -1.34684889252635  -10.20578699361897   -4.09832842866724
C          -2.71917432400472  -10.18529114920080   -6.46174235435342
N          -1.85724665516323   -9.22544081071555   -6.88402598824663
C          -1.80980091185172   -8.60797177190907   -8.08226619435536
S          -2.97175892881670   -8.94954294626618   -9.32414132807530
C          -2.15965780298858   -7.81679873322146  -10.36435482982827
N          -2.68654961407310   -7.63472411586429  -11.63730853569726
O          -2.13582383566843   -6.83599215279936  -12.37889240457084
O          -3.67792409761353   -8.29558171666348  -11.92170334114620
C          -1.06782605320063   -7.22583166728373   -9.78242541697576
C          -0.84185400253924   -7.65883680107172   -8.46490370688038
C           0.22514288628168   -7.23300447591410   -7.60511909033744
C           1.19013690898815   -6.35451523756147   -7.94652569302086
C           2.24649177685153   -5.91927329725402   -7.09379049139132
S           2.79252959576015   -4.28917578512657   -7.33356932368824
C           3.77693533660481   -4.29928079370993   -5.91905313070114
C           3.73145699078512   -5.55476292104219   -5.30554805337173
C           2.89392146228394   -6.49638855177373   -5.99665790485904
C           2.87330493113086   -7.85086674364360   -5.54533087030048
C           2.36680386793032   -8.95458864219531   -6.39560765880651
O           2.43013182711886   -8.91689117137855   -7.60475018715679
C           1.82755109632805  -10.16986444280051   -5.67393477548326
C           3.53053013531369   -8.16365230308071   -4.37559241499656
C           4.28253149533996   -7.21453289015408   -3.66612238615322
C           4.41562909481183   -5.94114384360593   -4.13649925742316
C           4.48888554151469   -3.13698176444181   -5.48646747066848
C           4.54556547104651   -1.98141684613389   -6.15017358037078
H           8.04944329357032   -3.09462475516958   -8.70406334914328
H           6.47894163801643   -3.62848820358065   -7.90808742480057
H          10.30745701343016   -3.45443431542390   -7.32267981883857
H          11.09302850690641   -4.37218440438863   -5.04771445243997
H          11.24001085198707   -5.28598175593638   -2.81507355442544
H          10.72780817301804   -6.28615539080101   -0.49792924997057
H           8.77940395812555   -7.33840478308216    0.82518049085180
H           6.18476430082852   -3.31628776542849   -2.41727852303467
H           7.50079898249232   -2.59096321987500   -1.46627278909072
H           5.82623881288029   -2.25332754145578   -1.04329410395564
H           4.03638022522919   -3.75684771150418   -1.38535588451444
H           2.07652225490029   -5.18649501060128   -1.18993952333105
H           2.22669790989146   -7.35936485443836   -0.06833793451286
H           4.15113454536522  -10.25201137996761    1.89259570854327
H           2.37472693426170   -9.35530681987529   -0.43586013008014
H           2.01598129377217  -11.55781585617872    1.67230433110131
H          -0.15308399299249  -12.99751467418595    1.11934899312866
H          -1.96921383328090  -13.21917407640845   -0.69841174542947
H          -3.33581698245211  -12.95125832278008   -2.80586098201565
H          -4.16894249249320  -12.25041258657079   -5.14249306902393
H          -3.48614276114786  -10.50102957251223   -7.15136872109894
H          -1.13167716631975   -8.96775271832734   -6.22178074788446
H          -0.46651708588642   -6.50973528281793  -10.31044007571521
H           0.24470848438821   -7.64576088399891   -6.60477275566800
H           1.14664165758068   -5.86253954789060   -8.90793459404933
H           1.13010861766403  -10.69114531218231   -6.32602594253370
H           1.34716880015482   -9.90844749048545   -4.73553580187016
H           2.65194677640111  -10.85084611641713   -5.46864046960637
H           3.53011113327768   -9.18081179673289   -4.01660102181909
H           4.80204974085129   -7.51589828613386   -2.77002366581148
H           5.05902395522008   -5.24078931473907   -3.63099307957561
H           5.01719856303794   -3.24331093331196   -4.54972316794024
H           4.03422781849944   -1.84457968493192   -7.08888757014071
H           5.10657592661501   -1.14424102075341   -5.77610913417067
