80
 SCF done       -155.441164797147          0.000768503856
C          -2.01116888604038   -6.42947458719798    1.18483554198162
C          -0.93666809366342   -5.74685019138956    0.75380245576856
C          -0.84448657393947   -4.35110742630048    0.45873240584830
C           0.35999067814444   -3.96422227662896   -0.03306166116064
C           1.29554613328177   -5.01649948046277   -0.16966902874208
S           0.60845446323935   -6.52470926291139    0.38705772486574
C           2.58732108562339   -4.94184308672274   -0.66356779323524
C           3.29304949134720   -3.80096105420161   -1.09203431644739
C           4.57352747592400   -4.06567134802875   -1.49045479361845
C           4.93834837304686   -5.42406884027205   -1.40202973139382
S           3.59037928278881   -6.36927194673306   -0.80890808275005
C           6.18323612220724   -5.95128028003719   -1.69955394203026
C           6.56682760382968   -7.27955782287767   -1.61595882201590
S           5.47415567836640   -8.59857774058522   -1.20307766473233
C           6.73339913631163   -9.82174442882910   -1.29503953783815
C           7.96340897237666   -9.20032516314340   -1.64543759962902
C           7.84516636314202   -7.80689061074602   -1.82756606159940
S           9.34071623174429   -7.05665329166348   -2.25821798793941
C          10.10770182099916   -8.62287529104724   -2.19113628870974
N          11.47478212857414   -8.68086943557720   -2.47551651101832
O          12.01980012751428   -9.77087563621386   -2.43049457222126
O          12.02589069209830   -7.62699969973857   -2.75157059917878
C           9.26968846257119   -9.65885609833782   -1.85819788634918
C           6.52077366306269  -11.15596777614127   -1.04711395278442
C           5.29797544260564  -11.76513429435809   -0.75605778915592
C           5.09285669639438  -13.11571536423134   -0.45057964318932
C           3.77523605508380  -13.44623145666271   -0.22413833351225
C           2.90128553212784  -12.36578855174953   -0.35808700768328
S           3.77860880790536  -10.91011345183397   -0.75359350149419
C           1.50701881130060  -12.34007494786682   -0.23020973984210
C           0.64743361021701  -13.36219945525557    0.18368031568190
C          -0.67593681817002  -12.99124172426200    0.20338473899966
C          -0.90412625659168  -11.66927130958246   -0.20695417859322
S           0.60965032679979  -10.89494188210241   -0.61195254058597
C          -2.13512782262768  -11.02938583313605   -0.27716859937801
C          -2.37757471913175   -9.74570512741368   -0.72777233049622
S          -1.16988748935731   -8.67540990696645   -1.42025765365572
C          -2.29743214495489   -7.33643431627357   -1.62811110024007
C          -3.59494066392786   -7.74942535883648   -1.22521039756317
C          -3.60731825826484   -9.07482853405346   -0.73178425910144
S          -5.17198099013780   -9.61655069169399   -0.24554229439618
C          -5.81446841325865   -8.07669964725319   -0.74527092473014
N          -7.19400236213173   -7.87804290559037   -0.60517215620075
O          -7.65486193313316   -6.80894132701428   -0.96157475373512
O          -7.83594135219989   -8.80092219368592   -0.13233332437442
C          -4.88718395556561   -7.19787693279776   -1.24196752383127
C          -1.74870256782914   -6.17759869296240   -2.15395563760245
C          -2.21103245647828   -4.87318149963890   -2.20513691437842
C          -1.47965018969598   -3.80361090384920   -2.76887663918017
C          -2.07866620783580   -2.58284827656076   -2.65619915311054
C          -3.32116682929115   -2.62088783811900   -1.99138104669788
S          -3.70328328207477   -4.26794258679222   -1.52959546894431
C          -4.17986009971199   -1.57777257835638   -1.70620581675799
C          -4.01279327467697   -0.20680003806638   -2.03897328527953
C          -5.03001615492800    0.58979893049875   -1.63618833812865
C          -6.08275010203353   -0.09917859329589   -0.94884074074812
S          -5.68375964146020   -1.82163684099754   -0.85024543371123
C          -7.21147533549792    0.41664679297142   -0.44065958874807
H          -2.94137598878830   -5.92413216862342    1.37527496263466
H          -1.96615109777310   -7.48382888980467    1.38843099324369
H          -1.67512580298240   -3.69310124615023    0.64125449379030
H           0.60159352800735   -2.95441274113251   -0.31331158707821
H           2.85362130961682   -2.81981321794810   -1.08604746154762
H           5.26636328305324   -3.32075562747060   -1.84031422281794
H           6.94901636196580   -5.25335689548087   -2.01480910579037
H           9.60678361011150  -10.67591766148268   -1.77990467039577
H           7.38488949592593  -11.80612368683996   -1.08247687156135
H           5.90735957061830  -13.81651282540449   -0.40089496004484
H           3.43669916991510  -14.43740379036835    0.01787089754846
H           1.00479436967198  -14.33522971913383    0.46832920957596
H          -1.48207402112381  -13.63900100205849    0.49907263336560
H          -2.99884180473008  -11.58792026220098    0.06176287081547
H          -5.16539059937124   -6.22681096584228   -1.60262425396460
H          -0.73391350222622   -6.29611033622252   -2.51895834862508
H          -0.52607424007333   -3.96912153947757   -3.23886828950884
H          -1.65786446262201   -1.66628069012017   -3.02816153157433
H          -3.14431838525244    0.13967687703872   -2.57051195194881
H          -5.08372439202059    1.65116521240226   -1.80061367968327
H          -7.41952660841850    1.46897824977979   -0.52089176153468
H          -7.93947618734248   -0.19806695952745    0.05623240059238
