95
 SCF done       -158.272456940476          0.000373452790
C          -7.11140647559742   -3.35825239510641    4.07450335096239
C          -5.91769066781342   -2.84509776167630    3.74926305732165
C          -5.47976351831204   -1.48487510531975    3.88828469216120
C          -4.21575862341190   -1.25926860934041    3.47040785761064
C          -3.54816758322674   -2.41226078847627    2.96685596621774
S          -4.60495329857960   -3.80847319090513    3.05120942363424
C          -2.27136875525726   -2.48476001547855    2.46880248757738
C          -1.32256599004134   -1.43730958466276    2.34099757704813
C          -0.14463348762038   -1.82703564157362    1.79534179248739
C          -0.07005817799926   -3.20967166936107    1.45381362664498
S          -1.58671351618825   -3.98657313702712    1.87380115136967
C           1.00619362523092   -3.77338133282227    0.82506415509564
C           1.28806122323614   -5.06594445077506    0.35013618565414
C           0.96982687155613   -6.35974682527583    0.61073105563330
C           0.05566415423292   -6.79705208141041    1.71687869793660
C          -1.32204307850298   -7.22240368212058    1.20169375658898
C           1.65021656177841   -7.33966732285769   -0.23305387821644
C           1.39368315603172   -8.82056106248378   -0.14098042197016
C           0.61326106563161   -9.30803762657364   -1.36359012197909
C           2.49271360318690   -6.84384846580121   -1.15400323438778
S           2.54672947732688   -5.05257591798102   -0.95451984449846
O           2.11237486698875   -4.30263558465034   -2.09922462786142
O           3.82167689136077   -4.68451120162614   -0.39255845801364
C           3.34925966673172   -7.45161579614335   -2.14006963979281
C           3.14545250752615   -7.13041236649712   -3.50173353406239
N           2.12449931416991   -6.43336030592011   -3.99509199057080
S           2.30498845823489   -6.30590938736291   -5.57932209316004
N           3.66451101836812   -7.16296285469334   -5.73062004432643
C           4.04925022561116   -7.58351327781383   -4.52634473720867
C           5.17168620970864   -8.39371280672332   -4.18603346749649
C           5.31232769369373   -8.70058292147908   -2.83495899935506
C           4.44117999005798   -8.24804868071243   -1.84552592251620
C           6.11336089488695   -8.88643904639446   -5.13839283296266
C           6.05529523960566   -8.66403772550871   -6.47890047587945
C           7.00433328262091   -9.19167098091630   -7.36478418105700
C           7.12883455537628   -9.06156823339152   -8.72358221448868
C           6.18634776486845   -8.18264674431961   -9.49694156629220
C           6.54179237038223   -6.70484144880113   -9.31400868528081
C           8.21856307111682   -9.77320334163239   -9.31287807942291
C           8.51535308243447   -9.74006397237925  -10.78563020070683
C           9.54019733783629   -8.65361519465108  -11.12088720575205
C           9.01500976644869  -10.48128420044629   -8.43500410682372
S           8.33879487418420  -10.24093460144080   -6.77939070757167
O           9.25629764561861   -9.49836879059107   -5.95281150697583
O           7.82950875155596  -11.47989730346994   -6.24779148663926
C          10.13870099715650  -11.25036245309559   -8.70843511436795
C          10.92922147478591  -11.94781332272161   -7.81646202353108
C          12.05964476993505  -12.71265710153830   -8.20752037975828
C          12.70522460465537  -13.32590081740905   -7.18027200642943
C          12.11339833201333  -13.07287902986784   -5.91998588477169
S          10.71131621382414  -12.02846060673114   -6.09051450723416
C          12.52816465707919  -13.54870991434818   -4.69326827293531
C          13.64043990347369  -14.39425836886564   -4.42656964251031
C          13.80760066407765  -14.70141950268840   -3.12035648132676
C          12.82960425316475  -14.11664636124570   -2.24916300766784
S          11.69298304962722  -13.15401163518662   -3.21057481839121
C          12.74167227906194  -14.24283759530741   -0.91695196469559
H          -7.88091982381349   -2.73465533923674    4.49412836486122
H          -7.33954765228833   -4.39779975202682    3.92710289043053
H          -6.13667845518000   -0.73726569782816    4.29624091881069
H          -3.72844605523763   -0.30093724357226    3.50140353582088
H          -1.54325274184627   -0.43171809374976    2.65089001252381
H           0.68969622812878   -1.17258410738248    1.61546363349175
H           1.78699313433771   -3.06966769414832    0.55108651021936
H          -0.06275276056651   -5.97092845787907    2.41637471661951
H           0.51335629953800   -7.62495380478892    2.26288729952088
H          -1.75340152024218   -6.43537600278157    0.58973264333973
H          -1.98749857084498   -7.40708242996207    2.04103603115698
H          -1.25870429075029   -8.12650769813134    0.60407505349317
H           0.84530203731670   -9.06707554597790    0.76556807353069
H           2.35104134380006   -9.34379220765935   -0.10855275892642
H          -0.33090471565246   -8.77682417505466   -1.45581180903296
H           0.40969051633984  -10.37304110650765   -1.27910429280362
H           1.18843611478574   -9.13472110825282   -2.26928979491467
H           6.15308957541076   -9.31174254029764   -2.54179551346377
H           4.64183387456414   -8.49717976846356   -0.81436367397165
H           6.92801605798064   -9.48103528766940   -4.74816901308908
H           5.24402632065428   -8.06629513146905   -6.87264213941940
H           5.17105167732937   -8.34907322352108   -9.13238909215663
H           6.20477612112410   -8.42670804838482  -10.55803303624509
H           6.49004509549623   -6.42967081128595   -8.26434526254802
H           5.84806294192503   -6.08182584638325   -9.87360716303730
H           7.54996299860412   -6.50518640492323   -9.66849328995105
H           7.60399669988339   -9.56399209270740  -11.35628434678058
H           8.90785801627634  -10.71095719680792  -11.09307493603188
H           9.14773592679246   -7.67060194028382  -10.87602486155962
H           9.77921389835006   -8.67561450708959  -12.18165110185915
H          10.45394569640914   -8.80668333017600  -10.55211554326936
H          10.44906363698729  -11.32493136568626   -9.74513341613207
H          12.35582226882457  -12.78316650302800   -9.23982780415697
H          13.57736894548735  -13.94388074603068   -7.29571716825219
H          14.27907800510109  -14.74511688790614   -5.21754765676688
H          14.59121781592190  -15.32540605813129   -2.72868834617429
H          13.45496701893497  -14.83613344246244   -0.37239684818727
H          11.96565507639212  -13.75765825947543   -0.35438727970828
