98
 SCF done       -183.499422134827          0.000417235258
C           6.76420501793648   -2.64684950566991   -0.14293537367926
C           7.72347725391700   -3.45135286430889    0.33386127086613
C           9.03862090449483   -3.08460673921327    0.77663551968632
C           9.78644042585968   -4.11839897176899    1.22027048236629
C           9.13074178430151   -5.38128309955609    1.16752573045781
S           7.51640207182566   -5.20136183419537    0.51559197786115
C           9.62988070594141   -6.59627951560323    1.57405252290097
C          10.89682655524092   -6.87673480540246    2.14111924511661
C          11.06971354874026   -8.18114229509549    2.47936898779869
C           9.95267993063276   -9.01382433735494    2.20753613444357
S           8.67683545029796   -8.06714931592723    1.46863099196738
C           9.88596577479961  -10.35013736524618    2.52109306871894
C           8.79949606924376  -11.21399060340871    2.34399668949836
S           7.35711406769723  -10.62995614277220    1.55619585256994
C           6.52623822275960  -12.13012902125261    1.72550284842684
C           7.34362419215672  -13.07916189112773    2.34758558681124
C           8.63905261352263  -12.57211168201849    2.71047345520488
C           9.53431409498819  -13.49975926157932    3.29862745206335
N          10.82919328062638  -13.16603310582156    3.82764490152482
O          10.95143911894787  -12.13053007270768    4.45184145080619
O          11.72101146901165  -13.97175369188281    3.65815298520883
C           9.18682555111053  -14.82710473007297    3.44184060943230
C           7.93063144331838  -15.30058742143086    3.05266254988678
C           7.01383219229953  -14.43771298642124    2.52058816093506
C           5.13851130738475  -12.27612067338045    1.36093696332747
C           4.25647937048204  -12.81064196625318    2.29212792362745
C           2.89439973380451  -12.87274874896163    2.05270372971716
C           2.34287448754860  -12.44639868540737    0.84957932588512
C           3.23269916512135  -11.96700263552608   -0.16447783133051
C           4.62586995395780  -11.85489906612999    0.09852061113164
C           5.43850329487244  -11.37853077658391   -0.94953107819830
C           4.86877678614912  -11.01766720831301   -2.14201324950032
C           3.48043834495820  -11.14908005330951   -2.28436138408770
N           2.70051157834473  -11.60754984450817   -1.34452425972092
C           0.93782245650626  -12.46216722726089    0.58934663968477
C          -0.02381364286705  -12.44898610273596    1.55366027291344
C          -1.40434080314692  -12.45324163102917    1.30095239079768
C          -2.34661277627606  -12.22939298042315    2.27683206683214
C          -3.75487954697662  -12.23526325529397    2.15094317986117
C          -4.42098346539166  -11.90354946569492    3.29476416313413
C          -3.57127188932113  -11.59794853564256    4.37950740089648
S          -1.90265238090263  -11.80079603825397    3.92397324337880
C          -3.91521414463147  -11.12727642366132    5.63846060669885
C          -5.19669234201981  -10.89726839509284    6.17257624741928
C          -5.17783933428028  -10.34573044022460    7.42372332972689
C          -3.88285674648614  -10.10359690311873    7.92734580055922
S          -2.68258022656816  -10.64936077213023    6.78486183855426
C          -3.55625392480976   -9.48818871698802    9.12554563335775
C          -2.24957903381221   -9.20203928205164    9.48941038952238
C          -1.78078032368911   -8.52410289673863   10.59911953196498
C          -0.42691967230323   -7.93585277940369   10.53827458480832
O           0.43133954766065   -8.15610335146979    9.70895797016677
C          -0.36056614997939   -6.98279219186823   11.66758196917430
C           0.62923015828147   -6.10300691149843   11.99184998243146
C           0.44557803171603   -5.23926815916855   13.09599742244233
C          -0.76568833910056   -5.30968178922445   13.84171603618312
C          -0.94845470177946   -4.43786757934032   14.93310410118111
C           0.02545776723970   -3.53931506138403   15.26855400337867
C           1.22266772680573   -3.47166347031448   14.53118673840735
C           1.43043394482781   -4.30425706082901   13.46733028499909
F           2.16201191857718   -2.57829712364009   14.88094953620808
F          -0.15276301111819   -2.70878906956188   16.30764273038382
C          -1.76901874430276   -6.24297226060564   13.48719532139155
C          -1.56773004206050   -7.07014716251544   12.41648748082186
C          -2.40284331424383   -8.12064761578070   11.82627889934601
C          -3.47401092528555   -8.71277166176585   12.45792940329782
C          -4.10070054703402   -9.89602455625379   12.02397159801171
N          -4.62252506495320  -10.88207210919383   11.74860605712694
C          -4.00823226588972   -8.26552174028030   13.68059086536555
N          -4.50029843959513   -7.93547560937664   14.66524411923343
H           6.93080248051851   -1.58802541717749   -0.23373153085214
H           5.80559457643420   -3.02693866828244   -0.44514713828528
H           9.36153444887157   -2.05925497648532    0.74481526440532
H          10.79154654666666   -4.02552967145873    1.59132616056498
H          11.63532515826700   -6.11011727169652    2.29078566409567
H          11.95875121092751   -8.58114519732835    2.93362506609401
H          10.76383250966660  -10.73727326511497    3.01396768396263
H           9.90771966933395  -15.50219733099152    3.87761337423886
H           7.69576427204331  -16.34520395680219    3.18010941204323
H           6.04282473240186  -14.78445593884565    2.20312369041758
H           4.63772934481227  -13.12775844481235    3.25165045763657
H           2.25054313315326  -13.26859688511345    2.82298574493292
H           6.50762463139917  -11.31101012704532   -0.81496259411711
H           5.46828307885252  -10.65112545782554   -2.96029598761269
H           2.99152186030809  -10.87777838782046   -3.21147970802435
H           0.65378354292360  -12.40527703114376   -0.45211187442020
H           0.26856640290348  -12.38230385665794    2.59435769409608
H          -1.75087683741157  -12.62157197913465    0.29013844263466
H          -4.23305678460573  -12.48078885200192    1.21906274853313
H          -5.49149839535852  -11.85190462064998    3.37935389474709
H          -6.09416922436341  -11.13554907222900    5.63039501303777
H          -6.05547594741330  -10.09801477169687    7.99357124190486
H          -4.38079077176744   -9.18193863825302    9.75139536860388
H          -1.47667509897746   -9.43689066114091    8.76194649516191
H           1.53838892106845   -6.06082193928901   11.41150179919896
H          -1.85890280515049   -4.47808140337445   15.51045488373879
H           2.35284766947761   -4.24021261313326   12.91156708015513
H          -2.67694385152009   -6.26888632785411   14.06812596495127
