85
 SCF done       -161.073336800770          0.000409194208
C          18.15629954852782   -6.16553923242867    7.72300776851419
C          16.90462107627692   -6.61380565230164    7.93038716864890
C          16.37113536423310   -7.23245166672183    9.10109460961869
C          15.05767393923464   -7.57468813021531    8.99915940608754
C          14.47060357008139   -7.25264235718893    7.75805967895034
S          15.63386784740755   -6.49777750232519    6.70287092194650
C          13.14712846109703   -7.47116252044869    7.36404953811602
C          12.11474135931193   -8.05621685931233    8.10008906102988
C          10.91630562589958   -8.10518589103583    7.41536442184255
C          10.97647468819231   -7.56670780495992    6.13469424811922
S          12.57991456541194   -6.98872169731622    5.78433534297678
C           9.89315763532909   -7.45962483930081    5.23007873039484
C           9.93301514082452   -6.94137329767352    3.98923829454012
C           8.98540935882641   -6.70969787653222    2.90448300483347
C           9.88145923427639   -6.23527442816659    1.99577079337588
S          11.32134570352077   -6.33675057798947    3.01601824935282
C           7.55009521833814   -6.88195237263855    2.84541582262078
C           6.86189418532519   -6.85116405125715    1.69829777670767
N           6.94974167166203   -7.01606625429373    4.11194073037586
C           5.70076692094240   -7.44960356400894    4.41166085924840
S           4.89277697942523   -6.72405588803521    5.76923483134906
C           3.51785800301440   -7.75171163963522    5.49631347654007
N           2.45792348410450   -7.66307301676092    6.40126321698188
O           1.49931127722122   -8.39252512326251    6.22839711398635
O           2.58175296163934   -6.85608146431945    7.30962090616908
C           3.67484197174443   -8.58238175115535    4.42232701217516
C           4.93186130583155   -8.44919244452091    3.79466765159636
C           5.40581638843327   -9.30152331098209    2.74383384297428
C           4.60213980558591  -10.04398303452138    1.93972321631017
C           5.08711875792647  -10.91553506918593    0.94610252136417
C           4.28497496548313  -11.60147839857702    0.07092280477760
C           4.69263489751548  -12.52202580389150   -0.92695310075668
C           3.66863032816307  -13.04423096800979   -1.65638867776398
C           2.39520818784768  -12.55309824133024   -1.28639493982198
S           2.53523178593341  -11.42537834355749    0.03503959699819
C           1.16907353792660  -12.85585611401980   -1.85511422792093
C           0.89403315187125  -13.76676263149001   -2.89613394307568
C          -0.42595401379494  -13.82384812238250   -3.23836451049293
C          -1.25393036893693  -12.95360198815281   -2.49428270663271
S          -0.30166272636285  -12.07187546483501   -1.32277803487466
C          -2.61675432035325  -12.77873120597315   -2.64890662361051
C          -3.34831183157814  -11.85501630162713   -1.91131203786087
C          -4.70584536215183  -11.63231195731990   -2.03935932784332
C          -5.48760172790113  -10.65694146226572   -1.32471560949585
C          -5.03244393922267   -9.71673514034535   -0.42824821696273
C          -5.85995191288776   -8.77983035881756    0.22078538267849
N          -6.47936722908944   -7.98875854306748    0.77831100163766
C          -3.69032528969073   -9.52975554550380   -0.04279132058451
N          -2.62312630159190   -9.30160500539689    0.31805540509006
C          -6.88024301347722  -10.80911170866563   -1.74466942916950
C          -6.94982770334680  -11.83477729214792   -2.71801335279300
C          -5.59531005948381  -12.38396733309160   -2.94357432105587
O          -5.30365537251081  -13.27445538194012   -3.71950284913689
C          -8.12621627209840  -12.21036733360232   -3.31719175323075
C          -9.29538581263438  -11.54226591820261   -2.93599228188621
C          -9.21739622959741  -10.52313734696053   -1.95964075491248
C          -8.02530439815008  -10.14236576799023   -1.35395475197329
S         -10.77776253478428   -9.82896215805888   -1.63382585480554
C         -11.50206507012869  -10.90366460320833   -2.80030226777734
C         -10.62435383664684  -11.73964804790969   -3.40276926875566
Br        -13.35008312379702  -10.81889330877648   -3.11420377445201
H          18.90307943000915   -6.25058047204407    8.49224598963453
H          18.44657424262447   -5.71114486804159    6.79378341976292
H          16.98357684504032   -7.39691760339559    9.96915253818394
H          14.49531286115975   -8.04803048179670    9.78409845026425
H          12.24902148696514   -8.42495714919223    9.10028482607691
H          10.00944232071772   -8.51699324513836    7.82270409731077
H           8.94863009037991   -7.84424909302160    5.59787129893089
H           9.82734042999806   -5.87827216016389    0.98858555922043
H           7.37652472280758   -6.76136124203200    0.76116170059388
H           5.79098807126966   -6.92300844206231    1.66893491492593
H           7.37928134120609   -6.43658923093096    4.82172892075265
H           2.92111029251133   -9.29309809478050    4.13707886761458
H           6.47640387838009   -9.34512975205573    2.60114619141285
H           3.52741205589147   -9.96500425733562    2.03322835932211
H           6.15693318190263  -11.05637456589650    0.86367216007825
H           5.72981859951568  -12.76968295637472   -1.06894188530078
H           3.79305776377117  -13.75647324205068   -2.45199292551753
H           1.66516457122204  -14.35476550184553   -3.36067539210967
H          -0.83045371716020  -14.45783274552489   -4.00718049671729
H          -3.12429310482022  -13.37975839819952   -3.38944837044032
H          -2.79862515290478  -11.26562858358680   -1.18762178812507
H          -8.14558961538555  -12.99522697937816   -4.05707263994030
H          -8.02078037612582   -9.35933906371492   -0.61454854252507
H         -10.89958067335712  -12.46560475550813   -4.14599572237562
