87
 SCF done       -170.327329928425          0.000486890013
C           6.72423037200430   -0.99771547577714    6.66387873785359
C           7.22328913196935   -1.17849361669683    5.43357623134167
C           8.32242702570661   -0.48783833018674    4.82088916467211
C           8.59569669985136   -0.88576274352245    3.55918655728485
C           7.74081880178702   -1.91606535592262    3.07290719982936
S           6.57133346824013   -2.36508208224781    4.29165520754666
C           7.77284921741596   -2.50708414920044    1.83002661893091
C           8.64949126971818   -2.23047250777739    0.75337135411112
C           8.40595924667249   -2.97603207252611   -0.35589826378643
C           7.32465391476034   -3.89177142937688   -0.23345665162882
S           6.64019788853037   -3.76490682603425    1.37608288605004
C           6.89247610066044   -4.69988498095130   -1.25463379573429
C           5.83711136195024   -5.63871587900704   -1.29283673865370
C           5.06289198977579   -6.03845556865889   -0.19527194711252
C           4.02935629488718   -6.94482601109926   -0.30269961732262
C           3.68836488724331   -7.52033290119391   -1.52892454714964
C           4.45819218636782   -7.16159424886900   -2.67028676298312
N           4.14434448172314   -7.72036345943268   -3.84683268252849
C           4.85414168317985   -7.39189379754763   -4.89780059068466
C           5.91586401832431   -6.48175654741905   -4.79265381233880
N           6.24218286410550   -5.91907339170221   -3.65381367465216
C           5.52902869288172   -6.23706867470826   -2.56320696650325
C           2.62580877757002   -8.44052384593718   -1.69299483561734
S           2.22039320824641   -9.14470831238527   -3.23507149780307
C           0.89359709422800  -10.12514599948110   -2.57905013905394
C           0.77198189994934   -9.86282704392967   -1.19505386929087
C           1.74791018733819   -8.93214607511304   -0.74237863656566
O           1.60558929975491   -8.66710284784312    0.57148889810760
C           0.53204882906324   -9.40404393990474    0.96723819602966
N           0.12462383105584   -9.32682707838597    2.30342061557388
O          -0.81025519595401  -10.03981720206518    2.64047342728760
O           0.72722607981953   -8.56706362811975    3.04393712512923
C          -0.01609494673538  -10.13988122372739   -0.05620688473544
C           0.24418093331168  -10.97157646224216   -3.46763464249553
C          -0.61918697991765  -12.02275395478122   -3.20028917203583
C          -1.22277341880457  -12.88847482868574   -4.13682678333522
C          -1.93884543137517  -13.91815278758705   -3.57959991905838
C          -1.92910966225613  -13.90954383174964   -2.17580807359437
S          -1.00933764151072  -12.55311626153964   -1.58851823883899
C          -2.44455674933932  -14.77663504308535   -1.21503156352136
C          -3.07488247934118  -16.03143661864162   -1.30453561224101
C          -3.25930199473351  -16.62411235307964   -0.08471286103709
C          -2.76496949425549  -15.87520665139576    1.01296351128122
S          -2.13746244912050  -14.36822380733472    0.44786663050539
C          -2.82704655942320  -16.23780135959829    2.35235202240957
C          -2.33244257960740  -15.57403259726802    3.47439394220135
C          -1.32571885323797  -14.62244204102231    3.58037868537291
C          -1.08364033321555  -13.76443710043737    4.71923761463530
C          -1.80190997725186  -13.70951018918815    5.88977482890671
C          -1.47480632925018  -12.87222354285879    6.97541308456026
N          -1.25271180183355  -12.23705113943176    7.90643584801612
C          -2.94122396395723  -14.47934546334076    6.19602449207322
N          -3.87946933019428  -15.05563287412137    6.52653327613757
C           0.05192582255434  -12.89959925363831    4.39628579569740
C           0.54691281205557  -13.27339557041101    3.12440790208212
C          -0.24182551874088  -14.40701611492585    2.61727513442664
O          -0.00071984609639  -15.05609521033002    1.61050443558501
C           1.56500365080147  -12.60635117928699    2.49284554843823
C           2.12725344853665  -11.50654905361026    3.15097172963319
C           1.64893315820245  -11.15419841126038    4.43571923503197
C           0.61519181546325  -11.83525492956410    5.07200407603411
S           2.45909022748652   -9.74896259190874    5.05280403024086
C           3.39423165812809   -9.64005664344348    3.59144892788859
C           3.13670084426751  -10.61751644776800    2.68998551218285
Br          4.62108877186485   -8.24480353949039    3.37094308624855
H           7.14866881889732   -0.26453532265636    7.32695181545829
H           5.89204911389380   -1.57303540808309    7.02616371260161
H           8.85696163511243    0.27691155284489    5.35581251714142
H           9.38283523500730   -0.47721876478194    2.95078615966796
H           9.42600241852864   -1.49061775452390    0.82673465770569
H           8.96535445963720   -2.90169835176752   -1.27170350979612
H           7.41946747297696   -4.58948681313518   -2.19432509861870
H           5.28290273579199   -5.64097960243634    0.78188300775503
H           3.46931391615153   -7.21187609481909    0.57877583521202
H           4.58393607505926   -7.85420702599699   -5.83641017384578
H           6.51066885271577   -6.20743317738289   -5.65315748148240
H          -0.88067010515091  -10.75661711231219    0.05862244386284
H           0.50464401033282  -10.82919756240780   -4.50957561410437
H          -1.10699374055182  -12.73941169153034   -5.19601433794414
H          -2.45576505893305  -14.67277284655165   -4.14489564385005
H          -3.35147204199155  -16.47317137853970   -2.24530026405602
H          -3.70735988194486  -17.59243700875383    0.05446530173588
H          -3.41611982203209  -17.12532807550983    2.55402107137601
H          -2.80875022962422  -15.86343395242332    4.40380621436165
H           1.90117946747508  -12.90631235641500    1.51214950749261
H           0.27024968770907  -11.50771417342090    6.03830103810368
H           3.62645456956334  -10.70165197968491    1.73606605222742
