74
 SCF done       -157.750904167874          0.000467167714
C           6.79177886211173   -1.08475073837380    6.53191080400376
C           7.71329206702297   -1.80333204002593    5.87423308732800
C           9.12279943058595   -1.55088002867842    5.78347998005137
C           9.80154299518511   -2.45786605353182    5.04569754995560
C           8.98813169521345   -3.49064672273823    4.50056231280187
S           7.31907673301326   -3.26720712121794    4.95816546315855
C           9.39796562347868   -4.55032035079907    3.71631456169679
C          10.70662570212946   -4.85488055720940    3.27735591724731
C          10.77796584207047   -5.98362925799444    2.52017983293090
C           9.53299558896662   -6.63098297717585    2.31765873719672
S           8.26081979778176   -5.74314846745203    3.12698850520409
C           9.37503023766407   -7.79439470713188    1.59595687195005
C           8.20328300162886   -8.50790289249333    1.33583028055347
S           8.29801863015427  -10.01266366444786    0.41754656268379
C           6.57633734627542  -10.31980064536916    0.48680272984778
C           5.95329512451827   -9.28285530975343    1.19553561738933
C           6.86323342154158   -8.29753142221407    1.65605647696193
O           6.21007656291141   -7.33123605641749    2.32421233433768
C           4.89827652799051   -7.68552429927121    2.29922323887430
N           3.98163422364178   -6.82430144756623    2.94395615716251
O           2.81047351541053   -7.15058115912046    2.91059569317496
O           4.42287559100855   -5.82902311802022    3.48082145357995
C           4.67414333957084   -8.86286277614500    1.62796728905264
C           6.03142432218453  -11.45829320783258   -0.10418586038825
S           4.31283852013118  -11.85262456773657   -0.09447564450496
C           4.53297838790644  -13.34699212446774   -0.98936984277252
C           5.89513044505944  -13.52072779460621   -1.27903523006710
C           6.70133092001219  -12.46968381700411   -0.78253529078519
O           7.99760198063825  -12.67427654447008   -1.07151576608631
C           8.02954899166432  -13.85472138054866   -1.75148963034158
N           9.28042872972224  -14.33682380943167   -2.18671091358773
O           9.27247148727345  -15.39687928067456   -2.78908705288486
O          10.26728980399428  -13.67545622214246   -1.93784574964522
C           6.78461543013282  -14.41703617288232   -1.91044212684715
C           3.46097653668239  -14.17050447069927   -1.31317154974348
S           3.62190211886380  -15.66554233507680   -2.21872400259428
C           1.89397583753912  -16.04594993182505   -2.18026127174771
C           1.22869834037271  -15.01999193463240   -1.46978868771371
C           2.11222790424047  -14.01080382540938   -1.01157053747519
O           1.46420667658029  -13.05128034766246   -0.33518874351541
C           0.15754144921612  -13.43181291676861   -0.34713348095259
N          -0.78206449953253  -12.60559974079152    0.30274073856741
O          -1.94163804996296  -12.98076320264960    0.27864520137789
O          -0.37787447301234  -11.59269594413687    0.83461628603539
C          -0.04762523097312  -14.61410978838941   -1.01782842837867
C           1.51854401451140  -17.21679091205382   -2.81596479269689
C           0.27994610289203  -17.80897934267962   -3.00274529851581
C           0.09371636826862  -19.03067914508575   -3.68651459335099
C          -1.20515542616860  -19.44252436094516   -3.76902621326827
C          -2.11706345023967  -18.56205279775196   -3.15304347007878
S          -1.26216327135800  -17.19679804441758   -2.46506350153918
C          -3.49107086021507  -18.67912539660240   -3.05827659461087
C          -4.29885920323250  -19.73204621896771   -3.56636187645406
C          -5.62173256754944  -19.58234259704141   -3.32395437957416
C          -5.95728065014647  -18.39050722524494   -2.60133794554942
S          -4.47628402576412  -17.48280628630976   -2.25565570140758
C          -7.17313342032984  -17.97324404156353   -2.21935930849915
H           7.06966081205231   -0.20058520537402    7.07830095210040
H           5.75464364458912   -1.36598527044525    6.53381870666525
H           9.56330674937948   -0.70190281731353    6.27528290882586
H          10.86217784069738   -2.42692541859798    4.87048335293653
H          11.55311609973074   -4.24190012837129    3.52899194717823
H          11.68577962970674   -6.37704163055448    2.09807438159594
H          10.27726962016575   -8.22107034738852    1.17724856365254
H           3.72498425800108   -9.33577964261244    1.47947850892872
H           6.56890345784388  -15.33873848309740   -2.40978244352907
H          -0.99914573565469  -15.08524780620780   -1.13994255143446
H           2.34325287912586  -17.77015706240383   -3.25054822951790
H           0.92645972719969  -19.57203583366114   -4.09916530476563
H          -1.52122903390005  -20.34756126672243   -4.25481942770531
H          -3.86914032258107  -20.56520139245855   -4.09341011910597
H          -6.38609624105215  -20.27434638069150   -3.62914763343836
H          -8.04972656849000  -18.55296359839604   -2.44906798742415
H          -7.31130791622928  -17.05526017399442   -1.67809582244525
