80
 SCF done       -157.075865703849          0.006467813692
C           7.75942447226431   -0.81828049801002   -6.49906439598487
C           6.56724213648096   -1.43807985928182   -6.46639377195558
C           5.45260495542779   -1.24720405909661   -7.34886545835192
C           4.38799700680056   -2.03495550083132   -7.07587979669527
C           4.57808456645236   -2.90612759290286   -5.96854062800379
S           6.15919996671193   -2.67499538801565   -5.26552189437581
C           3.69660422023024   -3.85337676996532   -5.48338948624435
C           2.41728083536427   -4.19521827866045   -5.97426002140328
C           1.82896921034591   -5.21827408393865   -5.29388974389497
C           2.60494855213479   -5.73049623892785   -4.22731514212660
S           4.11692972561907   -4.85898294006093   -4.11239472909925
C           2.21497061888723   -6.77151878937974   -3.40402074268390
C           2.89980738029170   -7.32896173119002   -2.33197679474979
S           2.09111461674759   -8.56514900796459   -1.35885711766476
C           3.44383792461809   -8.78589239565009   -0.25000623621742
C           4.49270273200884   -7.92250927338175   -0.66261553057835
C           4.17299127214446   -7.12812553086033   -1.78503640575950
O           5.19652574107551   -6.32132149851133   -2.10064998571979
C           6.16893329808097   -6.57510320433872   -1.18013463077470
N           7.35934610315279   -5.84025713332768   -1.25097805086779
O           8.21003061494839   -6.09841770646886   -0.41067470864282
O           7.46856146435466   -4.99911024233898   -2.12510536953990
C           5.79017869930477   -7.54788834880154   -0.27754119185618
C           3.44678495619225   -9.64326858031586    0.81866572575920
C           2.37224341288936  -10.40669565577344    1.28853673869631
C           2.40386943315334  -11.31913345851782    2.34564735942556
C           1.18405667428011  -11.90251148784346    2.61855150253574
C           0.15723406007421  -11.44897777192165    1.79319071282044
S           0.75940831325287  -10.28915383555542    0.63745711177008
C          -1.20449073843848  -11.79102246996537    1.81292570142894
C          -1.84535772385073  -12.79474117971876    2.54105836859537
C          -3.20116375366432  -12.85865919863873    2.30877732889356
C          -3.66937778097204  -11.89861999773507    1.40348606287791
S          -2.34603500050139  -10.90954880709132    0.83828341237807
C          -4.98280409113579  -11.73547586497843    0.97056027514980
C          -5.44595913990888  -10.76725775067652    0.10638672036869
S          -4.46755069190547   -9.46003567087922   -0.57131967629345
C          -5.78555707450281   -8.77526101863277   -1.52524112719444
C          -6.94994569912668   -9.55565688702707   -1.29903670766599
C          -6.74612483739677  -10.62265201199364   -0.40534442956140
O          -7.87060505737375  -11.32949488545419   -0.22772260246133
C          -8.80693121646418  -10.72188280095747   -1.00619996180805
N         -10.10380723462726  -11.26539035926252   -1.03442684496779
O         -10.91368659722110  -10.70206305778747   -1.75200359595418
O         -10.32848122822167  -12.24810645924384   -0.35705797553187
C          -8.30203575403368   -9.63213277538283   -1.68351004827250
C          -5.65562563064193   -7.68442632782599   -2.34605443416671
C          -4.51774160541278   -6.89612537835770   -2.52463022531743
C          -4.39565993564605   -5.82497920311601   -3.41987743137685
C          -3.17387960427606   -5.19910797935104   -3.38370877587725
C          -2.29205746901200   -5.74808519530199   -2.44206660293156
S          -3.03655686016797   -7.10378554698186   -1.62621008192535
C          -1.00142841767954   -5.33071887222571   -2.12743088853057
C          -0.25683991375248   -4.30449208450841   -2.74636252725039
C           0.99314232036713   -4.13593740416078   -2.23439370144931
C           1.30267856897698   -5.01466046630408   -1.15534947814102
S          -0.08201507802791   -6.07037022158304   -0.84436226437466
C           2.46338110562742   -5.12672609426815   -0.48231468142175
H           7.97622063457316   -0.07465091073818   -7.24722463126242
H           8.53096929283510   -1.04341494042740   -5.78521845889401
H           5.50080309596539   -0.52924050578244   -8.14876969232698
H           3.46934736579633   -2.02579830756152   -7.63241069843949
H           1.97253401982802   -3.69021039674098   -6.81265010640620
H           0.86062790898005   -5.62030638850848   -5.52049151836554
H           1.23624042137978   -7.19125954885887   -3.60101626582555
H           6.38818521402100   -7.91124594278966    0.53203023383164
H           4.37438172405016   -9.72809536184190    1.36985065606988
H           3.30888627642019  -11.53456615728476    2.88557883002643
H           1.02208438933856  -12.61985526645997    3.40234770700939
H          -1.31561108468079  -13.45739391667625    3.20082838641208
H          -3.85959253476831  -13.57275465643412    2.76896386872835
H          -5.71460446865766  -12.44078488733134    1.33751321178423
H          -8.85433761605065   -9.00372326805295   -2.35093939219695
H          -6.53018996643208   -7.39990078291787   -2.91680417613361
H          -5.20156765276895   -5.53710145641837   -4.07201408900431
H          -2.90995679404430   -4.35832508234074   -4.00163179171310
H          -0.65511177154927   -3.72857750684661   -3.56381627196402
H           1.70098841284150   -3.39969797764744   -2.57090088575912
H           3.28955162268556   -4.47534305348904   -0.70659454990043
H           2.57648468586624   -5.81735085355946    0.33537850933096
