87
 SCF done       -152.019902017402          0.000599954605
C           2.77870137505856   -5.14800312335783   11.48371315531452
C           3.87319968407701   -5.09481442607545   10.71238797613977
C           5.20153989719300   -4.71343387086633   11.09822879496887
C           6.10697601789005   -4.75111763835323   10.09579376352088
C           5.57877179472102   -5.16449808896749    8.84084607271732
S           3.86558118812574   -5.50709617653705    8.98958363941639
C           6.25796681820285   -5.29300603313690    7.65329049765079
C           7.62842578159961   -5.03477485324809    7.40430406241647
C           8.00467009563716   -5.24778197690689    6.11656227068164
C           6.96262984715511   -5.69176703788104    5.26083490954943
S           5.47109669626419   -5.82591990751958    6.17603376662921
C           7.10453157212949   -5.96643778948449    3.92631741689143
C           6.12889227325297   -6.41814462642258    3.02287885875545
O           6.54199081656901   -6.59744480004916    1.71851881815995
C           5.46742663762279   -7.03441888152557    1.04774347106265
C           5.04640114597842   -7.43000262568236   -0.21715353514990
C           3.69762716839173   -7.76293973684908   -0.06071502328791
O           3.28517800200244   -7.58502599128192    1.23912901793873
C           4.35989588891730   -7.14175405831648    1.90886796849829
C           4.77646545916936   -6.74580078642024    3.17571365659889
C           2.80174365072924   -8.23520236658948   -1.04111697273638
C           1.50388025195201   -8.57454525123014   -0.79561182240091
C           0.62280325024616   -9.05092384369526   -1.78181048982674
C           0.83551562489548   -9.25393193693894   -3.15730520924516
N           1.98278199218900   -9.01663058405466   -3.81805493834278
C           2.00251221659002   -9.26599008986783   -5.10456446292517
C           3.28203818628733   -9.00249876670042   -5.82801251805741
C           0.85548318807065   -9.77007527981165   -5.78937781154373
C           0.89155693339543  -10.05254586794762   -7.25517481364026
N          -0.27206997694819  -10.00563293452831   -5.16430445885457
C          -0.31295330392568   -9.75628727324407   -3.84323724340576
C          -1.42526104227649   -9.95143347165204   -3.00504735203543
S          -1.00820642549574   -9.49813244887893   -1.37948807921530
C          -2.71040535556971  -10.43133463658746   -3.31158977373242
C          -3.11475575557600  -10.76908759017877   -4.56918876575254
C          -4.40031236889301  -11.25825440493747   -4.87980347925308
O          -5.32692241113793  -11.46281250534536   -3.88420504278586
C          -6.42791160957499  -11.92501105057092   -4.49540408470527
C          -7.72601861710148  -12.35844583963167   -4.24405344726789
C          -8.24590580617574  -12.68833899337337   -5.49934647788344
O          -7.32123021862983  -12.47587670849108   -6.49633701251058
C          -6.22001744153722  -12.01626241209162   -5.88365084586603
C          -4.91860767687614  -11.59242959719682   -6.13404447454819
C          -9.52850315363088  -13.18175968276658   -5.81240116581956
C          -9.95005547430050  -13.42931192664055   -7.08951672713383
C         -11.19751819934820  -13.92981733834214   -7.49626436532067
C         -12.26297079197990  -14.36340383715508   -6.74240900473539
C         -13.47858800762833  -14.85806898508300   -7.28370863544667
C         -14.39220656744684  -15.26462688787945   -6.36306705976718
C         -13.95865875879624  -15.11848319764523   -5.02380790633926
S         -12.34398868332750  -14.43251822148066   -4.99061417301430
C         -14.63510852905039  -15.44483389603446   -3.87249117584325
C         -15.93609453804131  -16.00859078314954   -3.76403113992261
C         -16.34415607924541  -16.23243442478814   -2.49485079175775
C         -15.38990908853238  -15.86024141208505   -1.49048779155072
S         -13.94453032269938  -15.20681681888346   -2.27817449423024
C         -15.51405261613251  -15.96542952990499   -0.16001831780272
H           2.82906814240435   -4.88723922221096   12.52610781460732
H           1.82447631336311   -5.44832904317300   11.09176243806144
H           5.41685378660664   -4.42681319238987   12.11247170351706
H           7.14617337752122   -4.49707752709929   10.20844183443942
H           8.29203750727620   -4.69764998381442    8.18000133447216
H           9.00314047277074   -5.10234591531832    5.74308839848660
H           8.08742040987020   -5.82190369208882    3.49799862891291
H           5.60211239798279   -7.48333244923792   -1.12929266562739
H           4.21051579172637   -6.69733307140006    4.08119267732290
H           3.18912871222533   -8.33439680795281   -2.04309602990401
H           1.11352102817039   -8.48508604181375    0.20914103902144
H           4.01351761536662   -8.60368953608125   -5.13093026264884
H           3.12468194934039   -8.28707242939794   -6.63394364306860
H           3.66787599943145   -9.92287394434540   -6.26497983581548
H          -0.07230078974472  -10.44221360648463   -7.57038157479576
H           1.66707508922973  -10.78213648209539   -7.48378996790246
H           1.11032965973300   -9.14257438426187   -7.81234387120071
H          -3.40555623117379  -10.52832389372731   -2.48864597081270
H          -2.42392432117924  -10.66151968931663   -5.39068041360082
H          -8.24632691590296  -12.43519443852535   -3.31268479436371
H          -4.39719565679634  -11.52180487679155   -7.06521770635191
H         -10.17574540901013  -13.34517905525204   -4.96576671396648
H          -9.24916535730388  -13.21073250714219   -7.88473571034177
H         -11.34921871010792  -14.00113177770717   -8.56676418162690
H         -13.63466347680542  -14.89749863344786   -8.34770312323842
H         -15.35938444695317  -15.66628973179892   -6.60679919553184
H         -16.52398619277489  -16.22930328777625   -4.63750859859093
H         -17.29475886137966  -16.65320312600585   -2.21854724786686
H         -16.40979086136414  -16.36965950932312    0.27738570204610
H         -14.73153565693511  -15.65423891990289    0.50723270315992
