88
 SCF done       -167.156255719177          0.006528735616
C           9.25487528934669  -13.84887945492014    0.20542873759395
C           9.35234345640666  -12.57852774453175   -0.21180822354387
C          10.54039219434673  -11.86027133958262   -0.57045106976870
C          10.32779266311608  -10.57720891491694   -0.94562568808250
C           8.96645884975570  -10.17599251083687   -0.92022478743236
S           7.95149131091515  -11.50777417216709   -0.39196801074327
C           8.44580752110621   -8.94712665449211   -1.26071595408173
C           9.13619267903898   -7.78349013399303   -1.67197855766351
C           8.31859862519462   -6.72655444493105   -1.93524913329417
C           6.94155324318647   -6.98751359655680   -1.73979759424717
S           6.71891796444978   -8.64505662167273   -1.23264869265399
C           5.91955977984502   -6.07134281510855   -1.88674242327559
C           4.57169647355379   -6.27581889624446   -1.61357946055465
S           3.96154854237376   -7.80750210465089   -1.07286972998773
C           2.35233034333775   -7.19565623776925   -0.80257303477516
C           2.27312144879283   -5.84467759606746   -1.20098631029850
C           3.52020232544630   -5.32441373047939   -1.65838572334848
C           3.60721498616582   -3.99191642583223   -2.08796434933283
C           2.49135517869853   -3.19695287157929   -2.08480690937156
C           1.26958623026008   -3.73541645870582   -1.66144852796837
F           0.17934850502153   -2.93722749408388   -1.69243474393444
C           1.13251434385170   -5.02583876859999   -1.22788033754153
C           1.43809784194392   -8.05057075277685   -0.16448194150760
C           0.30180314162732   -7.74515943530016    0.56261423692684
C          -0.12999460134790   -8.92055271171686    1.20721456327056
N          -1.02002025889590   -9.33770577303028    2.13970312181195
C          -0.74104768829826  -10.64930829188956    2.45542909841625
C           0.32935719316795  -11.08074755221107    1.64900618509282
C           0.70664897833866  -10.00280881853930    0.87920946301591
C           1.74440209253867   -9.53487208180931   -0.06931025369376
C          -1.35543141339343  -11.32809626805079    3.54123478082656
C          -0.87871313476515  -12.51790823531379    3.96775284905344
N          -1.27193289413980  -13.21086637408266    5.08713338124136
C          -0.47023535277653  -14.11009240530762    5.70339217841205
S          -1.16373388433717  -15.41086877291051    6.62524158215951
C           0.43133568838518  -16.07577193104174    6.85871097262404
N           0.52602868482684  -17.24009036666785    7.62219134017747
O           1.63185962256005  -17.71958853359091    7.79990288184574
O          -0.52135423284839  -17.68820077309688    8.06615604499123
C           1.42190662491700  -15.33964730971801    6.27135833806489
C           0.93900201011666  -14.18475158666072    5.62081870237742
C           1.75860059848704  -13.14823615572398    5.07616582144603
C           3.07711465869107  -13.23686639283200    4.75456391488287
C           3.75021066532551  -12.11650681688727    4.21886708953141
C           5.06762155315957  -12.07726883724756    3.84370140370215
C           5.77476662717511  -10.94775254365959    3.27899508902540
C           5.24200990128907   -9.74790908089503    2.86774909472923
C           5.98276881195023   -8.72279293810617    2.24883640969230
N           6.51725486383792   -7.84739965762920    1.73351688494480
C           3.89109270845012   -9.36334709237888    2.98439956752639
N           2.81435398524398   -8.96160862044274    3.04085074998431
C           7.18495433479978  -11.30988261520345    3.18538038125904
C           7.34004260103477  -12.65616327712212    3.59622686372298
C           6.02358794202964  -13.19978344470048    3.99300186252909
O           5.79594702210493  -14.32981304451760    4.37303800624736
C           8.55977778658991  -13.28619338486037    3.62558905100692
C           9.68513463786385  -12.54708202156769    3.24492713014639
C           9.52311316359062  -11.19672000096455    2.85685912304415
C           8.28766439096253  -10.56254796355341    2.81627925065222
S          11.04272628230381  -10.46148869190801    2.44766852953841
C          11.86115164498673  -11.96695139972647    2.77127114941044
C          11.04287280566937  -12.96422492396283    3.18223513185403
Br         13.71776204848950  -12.07866303926023    2.52799801096537
H          10.13390789082731  -14.46123328344556    0.30058338637863
H           8.30923607094392  -14.29315715827662    0.45698670406448
H          11.50294960816388  -12.33971929205092   -0.53574877081190
H          11.10578157185555   -9.89736785555726   -1.24533181755362
H          10.20815178902147   -7.75355154414270   -1.74966067493414
H           8.66265488857715   -5.75642983159463   -2.24983845440604
H           6.20937967603370   -5.07950973979733   -2.20805720511282
H           4.55011028073631   -3.59559682061738   -2.43132115996765
H           2.52652654505361   -2.16998180365756   -2.41238485218478
H           0.16521956406556   -5.40029817390962   -0.94009554119368
H          -0.12545670099453   -6.76876871389919    0.69637666675090
H          -1.70592538588897   -8.76766384224542    2.60777267233435
H           0.77086459528833  -12.05754906064036    1.65560318100842
H           1.66506906247635  -10.00705427931583   -1.05281327657227
H           2.75578387589195   -9.71353891583475    0.30023164745404
H          -2.15114161320975  -10.82564615501600    4.07524487949041
H          -0.07162397477870  -12.99115879780778    3.43093610904413
H          -2.20609048995824  -13.07062656851794    5.44961735676601
H           2.45988025500127  -15.60862464355312    6.34586351595009
H           1.27555919104491  -12.19004053692526    4.92732225221162
H           3.62472591576034  -14.15974740465671    4.86684577174952
H           3.15703526409393  -11.21714047865063    4.09915680492547
H           8.64472933814067  -14.31638595917121    3.93515559500653
H           8.21791340002446   -9.53208670453096    2.50930841216502
H          11.38195997653139  -13.95350353158534    3.43087928017900
