100
 SCF done       -183.144210443257          0.000831529896
C          -0.14479177075200    2.95261967127600   -4.26984195375573
C           0.14541809864781    2.22531280935173   -3.18141909601946
C          -0.07105577506419    2.57924067464162   -1.80789689194150
C           0.33108821869733    1.64180933109487   -0.92121561680829
C           0.89451335854507    0.47676454380083   -1.51224557147581
S           0.88886664280327    0.61963311019565   -3.25856106093233
C           1.39560238040050   -0.63039405028343   -0.86831868264441
C           1.47306281873660   -0.85555709369099    0.53298655476993
C           2.03346104417232   -2.04279408999128    0.86594038493262
C           2.43195569336391   -2.84441330851318   -0.24553638381966
S           2.04672156733488   -1.99797392389582   -1.74068307367013
C           3.07015259086042   -4.04216040774736   -0.14540788015936
C           3.46605931399600   -4.92700084328539   -1.20054169353520
C           4.47897291404384   -5.89194229659195   -0.93566627897854
O           5.01062725061241   -5.85983225212887    0.29752651315287
C           5.88366793035424   -6.88740533953279    0.72773154247460
C           6.12596292176503   -6.67486551544923    2.21372466479310
C           4.88439094447253   -6.76743237365850   -1.93109406154022
C           4.28541588832370   -6.76816341699109   -3.18670728128911
O           4.66087039351619   -7.55391708860754   -4.20928454209884
C           5.41458151435643   -8.73237156737211   -3.99132420924982
C           4.56303107090130   -9.83403324457043   -3.37171213731873
C           3.20941591818180   -5.87572438622159   -3.42959780924416
C           2.85245326443109   -4.95657999045171   -2.44558003388352
C           2.36069905860724   -6.04089419480659   -4.57593127595054
O           2.65106399217901   -6.97217148794043   -5.51051145675467
C           1.08658286719627   -5.55550649135482   -4.83191724192315
C           0.04302506428669   -4.63269814159002   -4.38590829355875
O           0.01469998788412   -3.82069224937033   -3.49461960330393
N          -1.01815314820811   -4.88105615839433   -5.25598168979241
C          -0.79033032449027   -5.87159396275995   -6.20755861638514
O          -1.58792197585482   -6.23773650255095   -7.03270184396837
C           0.58001387632914   -6.30182207538551   -5.92826906238158
C           1.56999654182895   -7.18296781853420   -6.31092920682177
C           1.56672717764653   -8.32302257342862   -7.15708941907381
C           2.66715326906289   -8.89636922546046   -7.71293320354994
C           2.69175407982705  -10.24866590994718   -8.14251887818928
C           2.10861430022493  -11.23620847374598   -7.38857875508935
C           2.11730914359399  -12.63796036383022   -7.59207565588996
C           1.72380152227103  -13.36505584405190   -6.50439503277383
C           1.39774372503268  -12.57670789978428   -5.38156116315081
S           1.47705323435239  -10.88256808217233   -5.77982051026295
C           1.14294326029152  -12.96826857367119   -4.07217775989419
C           0.92703929403671  -14.24920955545543   -3.54130926286861
C           0.79615915986113  -14.26152795368781   -2.17626264392300
C           0.92511760774236  -12.99671162032442   -1.57302388596423
S           1.16461919174601  -11.77146229615888   -2.79384753592900
C           0.92155572675434  -12.70798107672640   -0.21301355630263
C           1.18206847619907  -11.44515485049632    0.28639810772782
C           1.21069082778556  -11.10332649580171    1.63343792873500
C           1.54480243122119   -9.82452444515238    2.18166234730317
C           2.04224975164492   -8.72404546863390    1.50826234639539
C           2.35145662365857   -7.49259872799841    2.10942111793568
N           2.64586861405114   -6.46374050184746    2.53246940417497
C           2.38098701997885   -8.68393785958597    0.14750611122213
N           2.73647551301227   -8.55690089226066   -0.94019736667458
C           1.33732775322506   -9.88711446236507    3.62822495710855
C           0.93962149666697  -11.20213568707206    3.96803336787729
C           0.85545574452466  -12.01488341724887    2.73130842479190
O           0.54955121119332  -13.19131609383521    2.67044287666655
C           0.68850129659838  -11.58948365442396    5.25933938814639
C           0.83360469044645  -10.62928140297013    6.26895284979165
C           1.22328970585040   -9.31768699570149    5.91916235330105
C           1.47974912659178   -8.92642698593967    4.60921610812918
S           1.34030846120391   -8.29116867364893    7.31807466428364
C           0.87270326219132   -9.62452277269656    8.33921866645331
C           0.63909571136596  -10.77751337279280    7.67005136765993
Br          0.73934182100182   -9.36744600948025   10.19374313025834
H          -0.59480234784981    3.92530456380650   -4.17679328456755
H           0.05974086430769    2.59237422749585   -5.26109075878093
H          -0.51949814416221    3.52177866990162   -1.54806091212463
H           0.24381530532021    1.74119262295882    0.14627684297090
H           1.11809339610353   -0.13097847270446    1.24380554609888
H           2.17824933231093   -2.39106882733384    1.87331845131279
H           3.33001440885913   -4.37187531493418    0.85224530150227
H           6.83128786739424   -6.83625432979891    0.17345896950005
H           5.42086505716271   -7.86755428371120    0.54976548550875
H           6.62676270759285   -5.72461675497077    2.37608241843999
H           6.74138908501031   -7.47725486164006    2.61024034270235
H           5.17301175813453   -6.65627772111405    2.73622101758406
H           5.66946039195588   -7.47372567431528   -1.72047200608145
H           6.30445806477052   -8.52922796256759   -3.38375644913289
H           5.74552377740111   -9.02455505489969   -4.99208444641136
H           4.14061430713485   -9.50318422834202   -2.42586779447766
H           5.16586206820577  -10.72315199716434   -3.20724848883550
H           3.73980333167692  -10.07924166720735   -4.03821912143759
H           2.01790396626156   -4.30275664837633   -2.63769765479126
H          -1.89322418103892   -4.38104620950952   -5.19153439337646
H           0.59165916637275   -8.76425852285121   -7.31600145583108
H           3.58092517919485   -8.32180384850948   -7.79524480781784
H           3.29832813530466  -10.53671904232012   -8.98971135450758
H           2.44365734362277  -13.06778444018739   -8.52270170626727
H           1.71608959552220  -14.43990506332800   -6.46620288183315
H           0.86772304042757  -15.12451026406333   -4.16343867233042
H           0.62947422548081  -15.14800205720432   -1.59053425258375
H           0.73679483085810  -13.52013146539231    0.47471688136280
H           1.38401740137594  -10.66339253338464   -0.43699218901657
H           0.39107826806263  -12.60080549207936    5.48818844652680
H           1.77181208538217   -7.91221843910062    4.39451120034313
H           0.34232934821284  -11.69612055736667    8.14231372754319
