87
 SCF done       -163.372433518959          0.000968225461
C           8.80637485671948   -1.97687783572010   -5.27509931824039
C           8.27644042768314   -1.66959633330274   -4.08363092114583
C           8.00157462343425   -0.36347973010651   -3.55506661041659
C           7.45988292735709   -0.36459269406397   -2.31778118263774
C           7.26262765316459   -1.66175708135813   -1.76473048931385
S           7.79595401750936   -2.89034253081504   -2.89365345765311
C           6.73774565033327   -1.97323332076900   -0.53438052063897
C           6.27352585548703   -1.08320602259455    0.46770208546798
C           5.81625084572877   -1.70079407867554    1.58579593363290
C           5.89301760262944   -3.12005987139766    1.54299204465416
S           6.56244603543832   -3.63175198068612    0.00179317395128
C           5.43814533865373   -3.97089328514328    2.51483448877937
C           5.46674884956130   -5.38820603766387    2.47460669497019
S           4.02441929242093   -6.20058736098824    2.99301245180446
C           4.57286753208841   -7.73890798916727    2.39576513910928
C           5.85046258616963   -7.62557854994384    1.83189225428801
C           6.39631624373174   -6.30069761449571    1.95327789045022
C           7.77369364719348   -6.11421777477909    1.67585312893765
S           8.69270540325992   -4.68671500252268    2.17510259293321
C           8.47871451961929   -7.12535283741495    1.07192493411534
C           7.87218124894913   -8.33897266890808    0.73964276411837
C           6.58396658529706   -8.61838923057504    1.12592415205186
O           6.06800347440575   -9.82874834360546    0.79238588541175
C           3.80746990814557   -8.91939113783035    2.69360120515526
S           4.56650197641028  -10.31661086141252    3.42325640445001
C           3.05957731136577  -11.12833830722800    3.56069739927827
C           2.01850444293397  -10.37016444436310    3.11229567446269
N           0.66917541046823  -10.71920805916090    3.19950858467517
O          -0.01964902583078  -10.48882600975699    1.99453080655138
O           0.43889866876819  -12.01414765506207    3.62389366459365
C           2.44164979084544   -9.10325919448982    2.61961299595020
N           1.49731456881103   -8.18078167432361    2.09857765090578
O           1.82819427921526   -7.69209637649007    0.84612490504215
O           1.44427274772198   -7.08198860849809    3.02399986704305
C           0.31478523413399   -6.34027762006887    2.90303665577618
C           0.26297010859085   -5.12209829248696    3.46063983411736
C          -0.87503200342850   -4.26838685919275    3.41767603052753
S          -2.28103379979227   -4.76343317761252    2.53192361358584
C          -3.15512399580874   -3.30251920741037    2.89465433196889
C          -2.32707060158637   -2.41757725642997    3.60035209346619
C          -1.05485383683858   -2.98771654227300    3.95400079595172
C          -0.17694116757596   -2.20487751573293    4.74949627958443
S           1.37876228034927   -2.79269262948460    5.39725697816992
C          -0.48980930363603   -0.90342731220931    5.03502176997408
C          -1.65608474770633   -0.30605657936482    4.54419813839025
C          -2.56853627797839   -1.03941254972695    3.82746074896732
O          -3.66848030949887   -0.47783589761625    3.27343555545904
C          -4.50537944222839   -3.25775212629376    2.49697628803978
C          -5.57899951143512   -2.66791580634141    3.10959236599376
C          -6.91439333544310   -2.74484410885730    2.62814274203459
C          -7.84613534164196   -2.20367524128177    3.45330657282974
C          -7.30823252179864   -1.66352978443801    4.64868159517966
S          -5.56756221918108   -1.86195025603664    4.66752999744759
C          -7.98726381979048   -1.05151908865406    5.67506935473072
C          -9.38878875718192   -0.83709430707449    5.77948248839748
C          -9.77652805281333   -0.20894812654721    6.91204038645121
C          -8.70280401649033    0.12645683633672    7.80214334788682
S          -7.17215896661910   -0.41357873436061    7.09259343234489
C          -8.78350636845442    0.74399787133557    8.98892535347520
H           9.08185251618736   -1.20276245804113   -5.96934590998112
H           8.97159113025081   -2.99561507311272   -5.57415568819330
H           8.22532875536422    0.51806242200115   -4.12929951766175
H           7.19209326356127    0.52262790108565   -1.77176044283868
H           6.29159333810885   -0.01701037006736    0.33019466302072
H           5.42461439309951   -1.19336690672602    2.44984180011872
H           4.85368120779435   -3.52648456644984    3.31199419322031
H           7.78730437715456   -4.22254620590192    3.03666928472777
H           9.52392416579060   -6.97666159830887    0.85131315463497
H           8.42491882630390   -9.09652464778675    0.20921645887062
H           5.13721570863651   -9.88785727073785    1.03862342057609
H           3.02764907022469  -12.10218017855712    4.00471904663644
H          -0.79101928764051   -9.94702101525261    2.20901665122300
H           0.76746419927705  -12.65508348423577    2.96697603903065
H           2.72380002877395   -7.30435688023393    0.83997957428901
H          -0.48959617291064   -6.78724456984943    2.33405146095809
H           1.14902192955538   -4.76455169514959    3.95971662678557
H           0.89005695573340   -3.86745269144606    6.01695832990146
H           0.19253879806725   -0.31784318217484    5.63157749066412
H          -1.83546390253163    0.74292173054911    4.73269439683334
H          -3.73457368982758    0.44675820046918    3.54394963480891
H          -4.74955646429981   -3.88753618596664    1.64838680591962
H          -7.13471741797925   -3.20518412029691    1.68079418730263
H          -8.90042488140119   -2.17948295167092    3.24348395246351
H         -10.06238003755075   -1.16000199045084    5.00535942207604
H         -10.79317252966547    0.03703655750640    7.16288615961946
H          -9.73579822941905    1.05216077063252    9.38290018671668
H          -7.91071057263077    0.94813527503597    9.58123959472653
