79
 SCF done       -155.451404333578          0.000739325395
C          10.93298102289538   -1.24563052613859   -4.85115465369355
C          10.23534802109025   -1.37098991556342   -3.71474786879422
C          10.18216789001225   -0.45368717456223   -2.61051367678002
C           9.38853225616825   -0.85116918470795   -1.59372755933494
C           8.75053735976475   -2.10910819538459   -1.80484739179584
S           9.20386712495941   -2.76687624763202   -3.36114617777197
C           7.90024232740225   -2.76469477262686   -0.94871069962425
C           7.46602241227821   -2.35405667054401    0.33740867853608
C           6.63485638294129   -3.23698046186976    0.94598816269955
C           6.35371948361807   -4.40584868044080    0.18350540776274
S           7.19224118234218   -4.32083475337769   -1.35263284981987
C           5.56687580414253   -5.44559843329191    0.59528680831520
C           5.26850287346116   -6.62214703684428   -0.12460363318601
O           4.52241752665776   -7.57268500884015    0.50467917969557
C           4.34522516243371   -8.61882370401586   -0.32971199360768
C           4.99422446211832   -8.32368289644639   -1.53775690045466
C           5.58144766820866   -7.05497629251812   -1.40299711547922
N           5.07902570445393   -9.12231519523507   -2.70359044955513
O           4.56368051321219  -10.22085843852318   -2.68873401645537
O           5.67306356148658   -8.64631987668445   -3.65145786373287
C           3.62001012685386   -9.76067160949970    0.08724305517608
C           3.10915223166981   -9.86740353219519    1.34271559464423
C           2.40436484145276  -11.00107116739061    1.81244287741161
O           1.97269096066254  -11.02196995356083    3.10627406311273
C           2.03629390498559  -12.19688206627056    1.21930436633172
C           2.07061280939510  -12.96979409326584   -0.02598061063667
O           2.52606405784011  -12.71442742738581   -1.10790128040782
N           1.41468794657050  -14.15698936851398    0.30739248680347
C           0.96011960903183  -14.23764074007996    1.61737794803049
O           0.37414990840844  -15.17687176533696    2.09609457333863
C           1.36433437623170  -12.95858179585925    2.20481857641167
C           1.34388753364483  -12.19952829568757    3.36264238057662
C           0.81610664503528  -12.45504326358002    4.65384776124273
C           0.20759142316580  -13.62494129577637    4.96813189283189
C          -0.32464955166283  -13.92001354144910    6.24957617300382
O          -0.27301287864818  -12.99957155255115    7.25475552086581
C          -0.83766954542245  -13.53027678858541    8.35684655712840
C          -1.26521345717215  -14.83766205386758    8.05017670428233
C          -0.93360022229246  -15.07177571227611    6.70301528533214
N          -1.90541035858765  -15.75593563299268    8.90059703392826
O          -2.12608143681124  -15.42101439250211   10.05376120462409
O          -2.20272520336153  -16.83895667898539    8.43107737351933
C          -0.92990287329530  -12.79828888260226    9.55370042506635
C          -0.47289561046746  -11.51370097094443    9.68192412801202
C          -0.56565010563851  -10.77634367287616   10.86575794144089
C          -0.12391789844315   -9.48171259952169   11.00647075003371
C          -0.19549444172807   -8.68267299089330   12.17536714486979
C           0.31182124922741   -7.42950531304318   12.03012941767217
C           0.81755856252380   -7.16223018659774   10.73425871688988
S           0.62328678431774   -8.57047644313407    9.70848949405305
C           1.38876745785300   -5.99885488044765   10.27280590578101
C           1.59453272683700   -4.79127199776810   10.99915158099454
C           2.18119587921112   -3.80604382873634   10.28507682226574
C           2.49017012675196   -4.16070541711181    8.92908324560350
S           1.97509733514812   -5.82960095889354    8.63366086730992
C           3.07122930394311   -3.39893710320421    7.99270158293367
H          11.54875011702821   -0.38083136648257   -5.02596148543583
H          10.90217788508539   -1.99690868435838   -5.61886501202569
H          10.74410189571744    0.46325304599519   -2.63203413071066
H           9.23172917157351   -0.28926325454409   -0.69024449479850
H           7.78341271127730   -1.42355902129362    0.77256693732908
H           6.20792489089254   -3.09788617042826    1.92344995330290
H           5.12857913234934   -5.38301213192578    1.58154831142766
H           6.14728814737618   -6.54820931237042   -2.15571092342049
H           3.50217118069625  -10.55400111170545   -0.63818447448360
H           3.24301905231758   -9.06524259443916    2.05502130348720
H           1.28105168909635  -14.90243331748076   -0.36098633459905
H           0.92634363422201  -11.67113533697041    5.38873486549058
H           0.10664538103266  -14.40434289836342    4.22623573800485
H          -1.11894100005272  -15.96913236405844    6.15012044535241
H          -1.39251432030955  -13.30457860258682   10.38730677230265
H          -0.01695481490511  -11.03442366204798    8.82459402141646
H          -1.01579554144250  -11.24690445367809   11.72955708990984
H          -0.62236933133416   -9.06535588567599   13.08551911269408
H           0.33751449632419   -6.69319633429294   12.81313629229756
H           1.29672395496187   -4.69952040517092   12.02840944259822
H           2.41468282178456   -2.82650588063047   10.66268963551728
H           3.36652282106152   -2.38812770475824    8.21196556667021
H           3.25439506837869   -3.76650111413180    6.99969842023071
