73
 SCF done       -128.342050232213          0.000468817874
C           1.32043886771849    5.63569294432867   -1.33023795314068
C           1.94037325433323    4.28249699741384   -0.97098045226783
C           2.71588082766705    4.36132191807197    0.29984532509146
S           4.37258240957720    4.89093749698780    0.32349377618207
C           4.48932229327459    4.79778786119275    2.04205712328614
C           3.31223913941435    4.37803531330451    2.59099217382372
C           2.68039450245459    4.10348385294345    3.86078779486220
C           3.28555965235650    4.16696616261044    5.17284463977092
C           4.67439278185412    4.17719506265769    5.33460578589716
C           5.25062038533968    4.19301453401873    6.58487005269999
F           6.59833103024123    4.18483688595432    6.66249721292341
C           4.49642778884294    4.17741545959345    7.75951417518862
C           5.05439125744286    4.06082672860204    9.08659601963692
S           6.44508648859704    4.95599642275635    9.62915205093535
C           6.33312221518974    4.36569579275212   11.26102918749158
C           7.24989178959044    4.86051257128106   12.32713549514365
C           6.67334164611188    6.09482247646021   13.02732265427368
C           5.27370193080336    3.50655603686120   11.35106256678225
N           4.66862956498738    2.74191565071851   12.31715759435702
C           3.63319937915986    2.05268083812280   11.73917625436622
C           3.52565848362597    2.34808105050657   10.40708867611966
C           2.60303405486369    1.78937909315254    9.43007757509108
C           1.23069108313597    1.70403459920733    9.65281532402485
C           0.38222605801790    1.27612808865743    8.65569791591757
F          -0.94009909951209    1.23898755483275    8.93986955772166
C           0.82530995058346    0.91196684826837    7.37619672708798
C          -0.05581660871640    0.54193856925635    6.30440003393717
S          -1.72881659145141    0.13491202393533    6.59616322657561
C          -2.06943582238141   -0.19008219656742    4.92963848778040
C          -3.40636368430527   -0.68345753878748    4.49240541296388
C          -3.47776803982795   -2.21245101764882    4.54301095531100
C          -0.93385440852724    0.01565806144945    4.19622347770775
N          -0.57831234796242   -0.04156512530928    2.87367546092464
C           0.74240020162595    0.31914589936361    2.77288757393199
C           1.25977419129569    0.61895568037699    3.99544111480200
C           0.21334387942055    0.43244190161708    4.94793229074140
C           2.21204838816100    0.92971067387211    7.18460409451739
C           3.05618423233429    1.35392568072018    8.18215828821474
F           4.38504264735592    1.31631212642565    7.93803894249821
C           4.55757403621939    3.30871140459598   10.12852188245777
C           3.10834850654524    4.21644378778866    7.60328138303872
C           2.53603169241051    4.20905992155176    6.35365093232274
F           1.18229607516526    4.25278596617789    6.30150804500688
C           1.38856148209705    3.74066255365322    3.56566571884524
N           1.15982515922238    3.75756632356030    2.21901871134656
C           2.31110414180330    4.14625008453317    1.58421526087977
H           0.75173546866685    5.55947071878115   -2.25381118050846
H           2.10185957145215    6.37990790566036   -1.46300245842203
H           0.65650103469460    5.97291681349849   -0.53716652370935
H           2.59987360288667    3.96465545031112   -1.78096965148644
H           1.14967485107803    3.53484087299124   -0.86233972770452
H           5.41419968353660    5.08274300103723    2.49899790071694
H           5.31573907305443    4.13555509221875    4.47118577426074
H           8.21335886671581    5.11712286221518   11.88402708419019
H           7.41302267489729    4.06659907174577   13.06118847812684
H           6.53100482898399    6.89843689190945   12.30866424861982
H           7.34956683809288    6.43942211315301   13.80571926239727
H           5.71086265299017    5.86372554420459   13.47838191157629
H           4.98235452436122    2.62982955899638   13.26466842595648
H           3.04556283110138    1.36517067413606   12.31786971903019
H           0.81523673978812    2.00566019603722   10.60161242981719
H          -3.60392813270050   -0.34136008302159    3.47247071892834
H          -4.17576792269658   -0.26810934927655    5.14582620387298
H          -2.71822494046565   -2.65195211635840    3.89982739139817
H          -4.45537216048406   -2.55693662043221    4.21481438039392
H          -3.30927234631674   -2.55971007485439    5.55939288810317
H          -1.16299565886507   -0.34855844459573    2.11730997362937
H           1.22825418428552    0.33963136148129    1.81525533080012
H           2.26067381915945    0.95344310866293    4.17648906337351
H           2.63381639379084    0.60165753259741    6.25125619361690
H           2.46895362238625    4.25817908916574    8.47020807175765
H           0.60430969437854    3.44866108497120    4.23536652244041
H           0.28981533898529    3.51801472296205    1.77875902177862
