68
 SCF done       -145.670557739716          0.000544426671
C           0.83474362349012    0.57379471214847    0.25649644860192
S           0.04215024393835   -0.58945142376780    1.21188143054737
C          -0.38164357277208   -1.54257527032572   -0.17320128389888
C           0.09392566872828   -0.94998168487709   -1.35216338360094
C           0.79319226826941    0.27234572457157   -1.09126960444390
C           1.33650708847960    1.00937708700863   -2.16540247470117
C           1.18478458010976    0.54258813667533   -3.43980323614557
S           1.84004182421838    1.42248733083956   -4.83923907296741
C           0.49002415190732   -0.67639914779614   -3.70497039923404
O           0.34094951351420   -1.13960018687615   -4.96375961123248
C          -0.04461882491776   -1.40624713538917   -2.67049412221982
C          -1.12236230333305   -2.74122371263164   -0.01847397081608
N          -1.42554546006281   -3.47172482582678   -1.09102975958017
N          -2.10826505296443   -4.56791985845401   -1.03805412003883
C          -2.58850075548041   -5.08327248886869    0.09221424575481
C          -2.32487869862157   -4.40126537021134    1.31664120013299
C          -1.56391725263879   -3.19509204048062    1.26093909745206
N          -1.38110725461157   -2.66016971451901    2.46116340404008
S          -2.10349209570274   -3.59447930970854    3.56071853880617
N          -2.67953040758842   -4.71912043193181    2.55447526845934
C          -3.34695632473935   -6.28268618973012    0.05929899674328
S          -4.00825830356880   -6.92573130923767    1.50996707123569
C          -4.76342616116173   -8.26862843170565    0.68040249139050
C          -4.46577264387244   -8.22658217960470   -0.69808689914782
C          -3.66516026253883   -7.09394754328952   -1.04182080391786
C          -3.25268911833370   -6.89128720358310   -2.36668967145099
C          -3.59906967961091   -7.80952545080246   -3.32225088275209
S          -3.09382601921175   -7.60877186358428   -5.00953868956210
C          -4.37145377532102   -8.95757496730199   -2.98999650254393
O          -4.69425401280667   -9.87938268453847   -3.91425804703644
C          -4.79624626305598   -9.15323325397597   -1.69362525245463
C          -5.51401471030006   -9.16701401934009    1.46368377140346
N          -5.36338460949582   -9.14324719395461    2.84114022199011
C          -6.16406978991847  -10.06300472930450    3.51545603851165
O          -6.17088419666168  -10.21841506622042    4.71483690637878
C          -6.90138974148779  -10.69303807026940    2.43580601574652
C          -6.48661381351719  -10.13339150797727    1.19183369379889
C          -7.31417104985234  -10.73051582124476    0.15073592058159
O          -7.37363741436807  -10.56477047172105   -1.04766789600042
N          -8.13998377412747  -11.62277443207392    0.84249646583713
C          -7.91171731273802  -11.60453779726315    2.19514368942199
C          -8.64976587352634  -12.41613111082241    3.08968544860297
O          -8.41377215012490  -12.39167377107461    4.42203587811942
C          -9.66337913945595  -13.31993694303304    2.84246706837575
C         -10.47565974220603  -13.91918988679960    1.78959050746374
O         -10.46423811925287  -13.73378013619687    0.59645803752896
N         -11.30851586012801  -14.79302986829917    2.47651849133381
C         -11.12628418082382  -14.82699953672863    3.86379360969078
O         -11.75247598182436  -15.51984127662065    4.62023444763027
C         -10.04789640641002  -13.85928342710011    4.09611380944076
C          -9.24865361153446  -13.25651308988690    5.04619888533788
C          -9.18922810233937  -13.40904769022908    6.47281188641607
C          -8.33976572585879  -12.72022086684192    7.23389153443608
H           1.29447946629882    1.42498690691730    0.71895165273590
H           1.86167499018195    1.93081132136848   -1.96200357516409
H           2.34696348100672    2.43083319211893   -4.13980389252657
H           0.75121636043265   -0.54312121888179   -5.60392451048360
H          -0.56916635572415   -2.32464123307408   -2.87027833854357
H          -2.66286387539033   -6.01729439999295   -2.59214214092001
H          -2.47434764210147   -6.44971327365995   -4.82087494123539
H          -4.38118806371365   -9.61928680642081   -4.79111070260127
H          -5.41082782245712  -10.01036976971077   -1.48654419299009
H          -4.70456857191695   -8.54680281688106    3.31803011106974
H          -8.83918309478626  -12.20041865561848    0.38968887572246
H         -11.99877943779473  -15.36574713442006    2.01172162398898
H          -9.88728780838174  -14.12573505974939    6.88078649322478
H          -7.65472454101730  -12.01039286559112    6.79958693543701
H          -8.31075049853684  -12.85004078574340    8.30125176481350
