71
 SCF done       -134.931447271794          0.000335331262
O           5.48048727154462    0.46035124098197    2.23137798912125
C           5.47572785239336    0.86153637808049    3.52665225341347
C           5.38719283867222    2.16880275776825    3.90674915202193
C           5.38788043761372    2.50141828570579    5.28087897537299
C           5.32169814874757    3.76268262669842    5.86678796566831
C           5.13223961037929    5.03706657414039    5.25447227529526
S           6.01692446408611    6.41891672112711    5.80663770610709
C           5.30119584767979    7.43959667505997    4.63887008016152
C           4.39452904637377    6.77913309990372    3.84526075950367
C           3.59769980056227    7.30737671336800    2.77233454256050
C           3.71285233319443    8.68931715214651    2.41418075778451
C           3.16837197893393    9.28572369165467    1.32356627318690
C           3.26504357037763   10.66547301442920    1.04400766758480
S           4.04512843762398   11.77827080330928    2.12186943433682
C           3.67892468367522   13.14108282401906    1.11900996750531
C           4.05342253021941   14.44800073606780    1.51314929053185
N           3.74596863721082   15.48698165534455    0.73560019971018
N           4.02359772165575   16.71241084909082    1.05063064369003
C           4.63640501375468   17.06229830852723    2.16925499590618
C           4.85877868004140   18.45811676750376    2.42491727889492
C           5.43819798888123   19.06252316622290    3.51231492650361
C           5.38457721078131   20.45852469587690    3.26174938402366
C           5.78542732345372   21.60421829476564    3.95155261807862
C           5.55161860952146   22.82855645427984    3.36831663809993
C           4.93178136845658   22.93613482595535    2.11974873760134
C           4.52514721171275   21.82068645885625    1.41568812082127
C           4.75746835140316   20.58548656903013    2.00070976719317
O           4.44539168957832   19.37199917712881    1.50548865232617
C           5.04328685318860   16.04953213166428    3.08667281668158
N           5.67722213167098   16.13513034908062    4.25159384697371
S           5.87187908717855   14.64776217429834    4.84685204574430
N           5.15798652471172   13.82904373829093    3.65206038759666
C           4.74085618025586   14.69495437924030    2.73965354681790
C           2.97786709272774   12.74517991037223   -0.03113694148819
C           2.51335454011433   13.56982156601021   -1.06802300925076
C           1.83497099881610   13.01835784306235   -2.12301810552726
O           1.36178255719572   13.77708191542527   -3.14960722891479
C           1.60321701125081   11.61578570021850   -2.17421557741203
S           0.73388766899493   10.91830897020793   -3.53936750896649
C           2.04995828031733   10.79672810345774   -1.16871207835229
C           2.74305760925765   11.34092710221191   -0.07596569169851
C           2.71315196103499    6.44063757424079    2.15583851553081
C           2.55966146954895    5.10935194770934    2.56417864961195
C           3.31671964321374    4.58006505880264    3.57353952274156
C           4.27968194913052    5.39074007211103    4.20708279168722
S           5.51921595828754    3.64277182112892    7.58950287619975
C           5.63866906376835    1.94245357378473    7.53670355014267
C           5.55415466127469    1.45624732435695    6.25148623742760
C           5.62796824979974    0.10722813603111    5.82970633944886
C           5.57579544412009   -0.18158032988343    4.49950079834876
S           5.65233613919631   -1.81750323898599    3.85292631414558
H           5.41575381777336    1.22189049044728    1.64296130627877
H           5.33472552520159    2.95060985231247    3.16280990522826
H           5.59690886476859    8.46873808311668    4.61265596863300
H           4.28845966743818    9.31471260102160    3.08273392262230
H           2.61979359289259    8.70115801598306    0.59953586588614
H           5.84133287722476   18.56103761731445    4.36769857858335
H           6.26370982592419   21.52265960601777    4.91540816161357
H           5.85079630603640   23.73060662767127    3.88113063819757
H           4.76785636741399   23.91642132809518    1.69819819916306
H           4.04643120876162   21.89503256342930    0.45256760830660
H           2.70075926011600   14.63096819727240   -1.00783755511104
H           1.58242466436115   14.70292066627417   -2.98841051789995
H           0.54842912163358   12.07785994534942   -4.15979715082210
H           1.86281375150301    9.73680019257666   -1.23240979372234
H           2.08246503610517    6.80192158107472    1.35889965007437
H           1.81517290325369    4.49851942940132    2.07545368413494
H           3.17031771432042    3.56458152210735    3.90624735411103
H           5.76656282719119    1.38769159157961    8.44425438537190
H           5.73088425296791   -0.67254830997307    6.56900367042021
H           5.73736268152130   -2.41485394094126    5.04368696839285
