120
 SCF done       -190.867252258341          0.000682004268
C          -4.05436284112788   -1.17949473205795    4.55199904883751
S          -3.62249540755815    0.13722770267512    3.53955123471925
C          -2.23361545992147    0.48972383229040    4.53279470940480
C          -2.13647190028263   -0.39310418879889    5.57664266898994
C          -3.18595576958263   -1.35292125402414    5.58379877429099
C          -3.34655131793486   -2.40385712523800    6.64352953713356
C          -4.49533215538401   -2.01704010842476    7.58257866796495
C          -2.02920813955362   -2.59383050043470    7.40122567661194
C          -1.40678876958934   -1.25773099855571    7.78918317795867
C          -0.98613152144813   -0.47518682343076    6.53596119299537
C           0.22322641931746   -1.12299686307653    5.91042280029831
C           0.28596358414884   -1.67818944273572    4.71578823807373
C          -1.38322279283269    1.60773978904351    4.15253943384428
C          -0.94760319832766    2.54110616974430    5.09886270424028
C          -0.19539705796035    3.61578530824938    4.68880990842167
C           0.13018814907473    3.78648380286021    3.33370070052897
C          -0.29169325648665    2.86185450629179    2.38995139621722
C          -1.04551274398467    1.78361056251936    2.80805380351660
C           0.83684365207907    5.03948339427221    3.18697148265408
C           0.96555366516911    5.63664844601621    4.45538751789363
C           0.39055828817641    4.73444271340228    5.52444142652744
C           1.49784507436461    4.10991465658102    6.40603523917906
C           2.36744743660892    5.09879039781681    7.17115098390462
C          -0.67342342683243    5.44678467664691    6.37179255955233
C          -1.82960607433040    5.97245272129304    5.52844042531906
C           1.49052754766495    6.89880309312682    4.57948934206586
C           1.90380894003651    7.59685208628731    3.43140715868206
C           1.79293596165918    6.97245647613767    2.17849776832450
C           1.27379565062260    5.70281958920601    2.04788103251276
C           2.35744259839909    8.95954871264614    3.48775066304393
C           2.79385942980293    9.60839073450597    4.59385213584880
C           3.11505171854648   10.99388033138320    4.65329874787537
C           3.73026155088130   11.52971393952875    5.81233511717643
C           4.01532784461070   12.93284449530342    5.96506750928286
N           4.65382869510662   13.37337980887888    7.04833062567168
C           4.99857731810625   12.51656991081364    7.99132102381139
C           4.65823848145464   11.13591942500694    7.87241052643337
N           4.05042732400509   10.67862544415048    6.80316718941809
C           4.97365294454000   10.23444696447819    8.91956600612983
N           5.23875777474156    9.53050002696040    9.78427335393641
C           5.69978351780027   12.98812296696082    9.12398029790208
N           6.26608956694591   13.34334089599902   10.05592960947767
C           3.59759761739283   13.90095689573092    4.99186792922961
C           3.01565773483819   13.35063062626250    3.81836573417535
C           2.80687035157998   11.93272637636289    3.63890892205054
N           2.27290751052788   11.66645399257463    2.44768165667272
S           2.05860079476223   13.03837263109802    1.63144087331112
N           2.63243532714988   14.04306361528851    2.75620972181789
C           3.78167455356551   15.25516828496116    5.26828719486507
C           3.28126159949945   16.39126961677435    4.64989921525174
C           3.51971754981041   17.69682409706584    5.13089919398191
C           2.81815968404863   18.68035851286430    4.48559289497630
C           1.98652311673654   18.18250542275585    3.47281174325012
S           2.17272070178576   16.45353934976927    3.30525635989000
C           1.07434302079908   18.86726328632833    2.67135240998796
C           0.81009977709853   20.24501712872846    2.60319285835962
C          -0.18966345580866   20.56904397222730    1.72649556946475
C          -0.77359563878719   19.46336305406964    1.07101958231393
S           0.02521495410010   17.99110733163939    1.59269991917854
C          -1.82889506011247   19.51743642014134    0.18469248107148
C          -2.49924175001438   18.45480745259016   -0.43970786595487
C          -2.27247609567807   17.06978844530893   -0.35201056784953
C          -3.24371026830580   16.40494345997408   -1.12480645548242
C          -3.46956208104951   15.05866464323220   -1.34832231744367
C          -4.55143074763429   14.70640141048820   -2.16067559266911
C          -5.04358582363886   13.46707125115509   -2.55727728845017
C          -6.18623231749962   13.66489183599385   -3.38748814029769
C          -6.40113739356095   15.02978671051201   -3.50788744877123
C          -5.40622390520383   15.72254312992893   -2.75708057435676
C          -5.18552197985365   17.05768236830353   -2.54511928568817
C          -4.09948749746772   17.42020878813230   -1.71963586081430
C          -3.63492873137715   18.65027324847133   -1.30130780215066
C          -6.99812202425839   12.64293025851743   -4.00311984333344
C          -6.80364744449418   11.33117016673839   -3.89459525741288
H          -4.92936342801207   -1.75415852609969    4.32008073638247
H          -3.61609199502928   -3.35165975739097    6.16253251225221
H          -4.30518932477277   -1.05680876759733    8.05559076287138
H          -4.61832908721078   -2.76906008213532    8.35893435145961
H          -5.42590397802305   -1.93914165957189    7.02540815399493
H          -1.32400822482407   -3.13482120736160    6.76578791038350
H          -2.20953015633368   -3.19581657412600    8.29406288138351
H          -0.53126641911536   -1.42651194566748    8.41966920132968
H          -2.12193465333929   -0.66595264211455    8.36307808999541
H          -0.67819506290246    0.52864767256583    6.84615357727090
H           1.09712287278441   -1.11926646278121    6.55048795072306
H          -0.55975228955082   -1.70866037513860    4.04967053764404
H           1.19383192118939   -2.12729561947475    4.35010787268308
H          -1.24537511833706    2.44002719880797    6.13166533697512
H          -0.04646831985005    2.98577535225417    1.34576292420091
H          -1.39241811146578    1.05794686243897    2.08667314022217
H           2.13991964131744    3.50623368274823    5.75882590053517
H           1.01590904055644    3.43205520299126    7.11479597775149
H           2.92718714652201    5.73147218011384    6.48795584284777
H           3.08046065019638    4.55276020967205    7.78512301260994
H           1.77255517919403    5.72748105808539    7.82828558851817
H          -0.21136453821196    6.28091610627991    6.90102741652766
H          -1.05615065026829    4.74755164198633    7.11846618860264
H          -1.47076025179598    6.68671940163383    4.79049563354397
H          -2.56080908293871    6.46970650559563    6.16191657926564
H          -2.32482519406388    5.15842000237429    5.00349629762692
H           1.53696336232128    7.38715433391128    5.53993073935531
H           2.11609013438464    7.51404275795727    1.30091539606546
H           1.18134043883471    5.24329000659449    1.07496304553364
H           2.33297422110180    9.50370005691537    2.55396746358933
H           2.93881408085547    9.07704680067632    5.52417996770086
H           4.36143004210504   15.44339587443289    6.16495281101322
H           4.19037498748951   17.87439659204785    5.95329353063717
H           2.87194213597007   19.72502304504986    4.73539225281958
H           1.35507377899814   20.96111168003679    3.19147753861864
H          -0.53038973583289   21.57314854593455    1.54345767711231
H          -2.20349503344628   20.51082949321935   -0.03320714834768
H          -1.49867525931799   16.58149760100628    0.20752956118277
H          -2.83752296603442   14.30213102531700   -0.90566447388179
H          -4.63089767222418   12.51461329863460   -2.28055938216682
H          -7.18832570667563   15.49782176103340   -4.07050024975022
H          -5.81724126370019   17.81703311433281   -2.98441473741384
H          -4.04568622696498   19.61029557979035   -1.55858175148811
H          -7.82681499335381   13.01361308457820   -4.59376980729013
H          -5.99502925805639   10.91561880871731   -3.31833089495759
H          -7.45255901280472   10.62387175435611   -4.38119729211215
