107
 SCF done       -178.040094059801          0.000384493388
C          -2.12931703188107    0.59622587180745   -9.06487577998573
S          -3.29359630574955    1.66272547565033   -8.35804166206679
C          -2.61821285224394   -0.64517931306777   -9.33733924520197
C          -3.97348329816384   -0.77272097988731   -8.96821708745667
C          -5.05467972800753   -1.76343905523764   -9.00058368798558
C          -5.03576740520433   -3.00919046608793   -9.51810476252666
C          -6.28704511325187   -3.84349488931768   -9.60116312108470
N          -6.58134049346442   -4.47054514078364   -8.31468387473392
C          -3.74622282716512   -3.67437492527109   -9.93423452032954
N          -2.88547278297124   -4.00287831698076   -8.80422778623514
C          -4.46890206388666    0.41710202515425   -8.42532731507000
C          -5.82512510947113    0.23286093693816   -8.06683195917369
S          -7.07612319070393    1.11838869598794   -7.30810821816164
C          -6.19684893961640   -1.08009773410616   -8.38435411295370
C          -7.49192753166005   -1.37583776039394   -7.96029739455881
C          -8.11895275325054   -0.29618449358831   -7.36466073880970
C          -9.42330121031062   -0.28455883411072   -6.81294175398560
C         -10.02979684097808    0.80213629672584   -6.27962382902047
C         -11.31009500910018    0.79369331011719   -5.66861830996207
S         -12.15468390463930   -0.71107681094334   -5.44536239800829
C         -13.45749087888196    0.09966244438986   -4.67349685868446
C         -13.29147846496340    1.44491444643235   -4.59505601433524
C         -14.30116094603429    2.31242968762252   -3.91671196695623
C         -12.05322875930565    1.87293636908442   -5.17650849491954
C         -11.56314862734200    3.21436829726914   -5.29508926312015
C         -12.24284078670293    4.37593653501362   -5.18059903175697
C         -11.66832991463910    5.67340090514799   -5.39732438433136
C         -10.35104496427166    5.95401040399758   -5.47497485059391
C          -9.74538014295729    7.21806941765496   -5.79673083682238
C         -10.22001847972176    8.19914540139452   -6.58062326184084
C         -11.52141199139663    8.16806592348915   -7.31874386231128
C          -9.32757588675925    9.37599031751802   -6.89476520372678
N          -8.51345580779462    9.02109903502796   -8.04435582062684
C          -7.19914970802239    9.22379320998203   -8.17830147419237
C          -6.43576887583437   10.09642800013113   -7.44843662860244
C          -5.04598270584599   10.24602834051627   -7.56969949934481
C          -4.12918017704791    9.43249328251121   -8.19914909083536
C          -2.74244680487206    9.68772675566822   -8.29325197188558
C          -2.02242581588228    8.70624062430851   -8.91161637612579
C          -2.80116391165641    7.61019401968248   -9.33214028269856
S          -4.47632723445607    7.87220006755536   -8.93951786290540
C          -2.38433195157674    6.44916739486324   -9.97002963547960
C          -1.09401487967906    6.11792504498023  -10.41410772803504
C          -1.01807404390017    4.88512850604001  -11.00447388278609
C          -2.24138131274053    4.18948666917170  -11.04442331520171
S          -3.50519502701783    5.14826005131042  -10.31854888416145
C          -2.44721321509281    2.91235903674211  -11.54687013362130
C          -3.66591731603828    2.26040869477555  -11.49815758519078
C          -3.87737922799555    0.95079738650102  -11.91080889878442
C          -5.09775317332018    0.20666111984679  -11.81263499601978
C          -6.30058332047903    0.62044329307827  -11.27673307822244
C          -7.42261328934321   -0.21261285991849  -11.13308820040883
N          -8.37015746146632   -0.84516946717370  -10.97194098841537
C          -6.57657736340717    1.90391341156334  -10.77227333024527
N          -6.90023992897514    2.92506468919239  -10.35291559012036
C          -4.85257985157397   -1.12761010477220  -12.36077967429330
C          -3.49680576729764   -1.20992290505698  -12.75317948316428
C          -2.83450815657775    0.08509184950626  -12.47207117298307
O          -1.65922504110275    0.33636970064649  -12.67521712528273
C          -2.94987365689931   -2.33982835526413  -13.30677765171768
C          -3.78427265146704   -3.45087171926111  -13.47893426444807
C          -5.13861714535101   -3.35518574097689  -13.09309857216127
C          -5.69363106049742   -2.20696116453566  -12.53988087174833
S          -5.99072265642201   -4.84401319792141  -13.38353153150029
C          -4.52999283955329   -5.56203947215285  -14.01150316743119
C          -3.46143623978782   -4.73253140855393  -14.00588895493653
Br         -4.55710603779562   -7.34146491053383  -14.61069977147200
H          -1.13878539002751    0.96236658957953   -9.24603133154000
H          -2.00721304316113   -1.41114692303124   -9.77895664321231
H          -6.16324185139074   -4.58131626977145  -10.41308171950045
H          -7.13234791499788   -3.20099167235786   -9.85946630636084
H          -5.85756671487163   -5.14180408580627   -8.07771362940993
H          -7.45875622501024   -4.97675485174301   -8.37036884779804
H          -3.17916789014880   -3.03094385174476  -10.61082331074497
H          -3.95823026467671   -4.60887078460035  -10.46225287810165
H          -2.60093728673654   -3.15453887021046   -8.32578710317818
H          -3.39532973359124   -4.56758224336860   -8.13205854034602
H          -7.96818169719956   -2.33344641439136   -8.03811825491720
H          -9.94532758074720   -1.23293547611649   -6.83087277237115
H          -9.49882270706722    1.74383698723911   -6.31090363702282
H         -14.28572538748061   -0.47671821624305   -4.30985297461085
H         -14.99405071344161    1.69394059109583   -3.34993602091332
H         -14.87776480894145    2.88073255663983   -4.64639255781392
H         -13.81358194495505    3.00732624392732   -3.23573108890522
H         -10.51838379869559    3.28359018139908   -5.56205625444836
H         -13.30297619921326    4.37245315476070   -4.98710564555185
H         -12.38015526364109    6.48349512016165   -5.46856134894924
H          -9.63626791609350    5.16912389456606   -5.26507536777918
H          -8.74310545742358    7.34505193315888   -5.40172410385991
H         -11.82059306160565    7.14393642764771   -7.53164155283377
H         -11.44180853906252    8.71744982109085   -8.25613919524600
H         -12.31051720061969    8.63773744011315   -6.73036896934694
H          -8.66981613922218    9.60117011380159   -6.05383460437960
H          -9.92499806396838   10.26635529303859   -7.12452490092739
H          -8.94744702673974    8.36419225625932   -8.67583266737534
H          -6.74391939653273    8.67285016651215   -8.98835409660573
H          -6.92414603119582   10.75594952995551   -6.74564879947262
H          -4.61750509175033   11.10652859597555   -7.06982903024279
H          -2.31304493937628   10.59209413586664   -7.89843733488954
H          -0.95772620165617    8.73684900197451   -9.05600539830508
H          -0.25828425814835    6.78462684399631  -10.29734347971569
H          -0.11718553886065    4.45742599997121  -11.40720444132305
H          -1.59403264605167    2.39796433695727  -11.96421512803067
H          -4.50466715202460    2.80959701532146  -11.08755095559312
H          -1.91085324875310   -2.36987766695237  -13.59572472289674
H          -6.73664480221335   -2.18289622575615  -12.27522833969796
H          -2.48394299215132   -5.01029358611302  -14.35571696236655
