101
 SCF done       -174.385653501709          0.000182564927
C          -6.31819398341160    4.75889603025163   -5.28505907910703
C          -6.00819158234427    5.11767468144772   -3.97587091527715
O          -6.56533612129899    6.28976588471336   -3.54063907861229
C          -5.79313376119654    7.19769522278774   -2.77803577610909
C          -5.19123187894208    4.27623484983317   -3.19596987446678
C          -4.66203698304341    3.13082767799683   -3.80083106863456
C          -4.95822483240466    2.79756287383051   -5.10499206805960
C          -5.80754408402324    3.60587086366341   -5.84604093254338
C          -4.95699588467924    4.54228257816253   -1.79130757803891
C          -3.89868453301927    4.11698539002898   -1.07454003180864
C          -3.73838425818510    4.43972450643323    0.30447460922279
O          -4.63822740132329    5.22777659820999    0.92145327705886
C          -4.23177960898543    5.42140638950969    2.20364450329152
C          -3.05443059924193    4.74510519819969    2.42092634188455
C          -2.72287628195718    4.10194988280437    1.20077720051260
C          -1.56433077369935    3.25894371628742    0.91505532182882
O          -1.36551728376463    2.76215354522349   -0.17495408472024
C          -0.62053611792387    3.04434033282057    2.07475016155409
C          -5.04719739115562    6.28140217647499    2.99677948058342
S          -6.42246375792545    7.01341258614590    2.22663551362428
C          -6.81929716980445    7.89720802571591    3.67270703678565
C          -5.91522480266389    7.62157334035088    4.68274011314401
C          -4.92624185095523    6.69324337779618    4.30939995085592
C          -3.86027836564589    6.21264429936641    5.24590598067406
C          -4.18058077023833    6.56144685084166    6.70346929598565
C          -5.16137617495263    5.54589511401299    7.27967066231315
F          -6.24305240540162    5.31590328853825    6.52769999100600
F          -4.56504183662685    4.34853756613924    7.44154027997858
F          -5.61071306857887    5.90506837231060    8.49348733116511
C          -4.69350075770011    7.99778227154084    6.82606709343135
C          -5.99656528406344    8.20738375471496    6.05832804807580
C          -7.93748543266916    8.77256152467316    3.71668650992728
C          -8.89684233351246    8.82464162038658    2.76602983828130
C          -9.99843086151480    9.71909829076605    2.77179109830750
S         -10.06922140114155   11.06106783703729    3.87580969786209
C         -11.60629286457694   11.59180850380575    3.23718087421325
C         -12.03001451562206   10.73296343372302    2.23203179746567
C         -11.11947601597977    9.69646948233090    1.96274425724377
C         -11.37582452457502    8.64598554936848    0.93006730688282
C         -12.44497034749132    9.10409721880479   -0.05605979574099
C         -13.67748895350251    9.59439131382240    0.71245600043894
O         -14.16174453810266    8.64577723667693    1.64376856820493
C         -14.83866671865476    7.55532670246169    1.07808619307172
C         -13.32555213418153   10.86162090564324    1.49683502674715
C         -12.21199743737299   12.79113994111986    3.71352126385133
S         -13.54156668151074   13.51097073243810    2.84390039135089
C         -13.60906894943705   14.86247361502667    3.92893492595773
C         -12.64610601823469   14.75105351647088    4.90848468117327
C         -11.86657905037828   13.58265902266640    4.79905928834002
C         -10.77675479335144   13.25253446938200    5.77240539920311
C         -10.83417901530505   14.11928095828112    7.03414651534708
C         -11.86834340027382   13.56477474711129    8.00742929221553
F         -13.06174949908902   13.29106739856170    7.46876440308557
F         -11.43855623742269   12.41322911622940    8.55636743132966
F         -12.10061016452619   14.40143077479613    9.03470792644968
C         -11.09743847901233   15.58335385172887    6.68152207178856
C         -12.44997607123672   15.76103583950879    5.99808728628110
C         -14.58111686921583   15.90529886160814    3.76193182548419
C         -15.49493490796442   15.94395831077767    2.79461381631268
H          -6.96582769474037    5.41319034490012   -5.84808960612415
H          -5.86649807940492    8.17306332554730   -3.26744989177268
H          -4.74414703082655    6.90154040514035   -2.72811352278213
H          -6.19481871599816    7.28499293064390   -1.76487744311510
H          -4.03833739180608    2.47789873028347   -3.21028339292856
H          -4.54234196449548    1.90205233359279   -5.54096222555804
H          -6.05980105452114    3.34529808965902   -6.86284020096134
H          -5.71649562108702    5.11725943533117   -1.27966415427757
H          -3.09463785810446    3.54148785356544   -1.50556432878746
H          -2.48884000609409    4.71706916355302    3.32713460292767
H          -1.15225604714630    2.58595697774780    2.90561220757006
H          -0.21850391036780    3.99959013234412    2.40560842984877
H           0.19477904801366    2.39669751108704    1.76398794194098
H          -2.90615900669104    6.67520475845421    4.97604306598330
H          -3.74498939730573    5.13056532987632    5.14631168701729
H          -3.27525461819673    6.44822641032019    7.31092773170722
H          -3.92194480390383    8.65610064084151    6.42194342105398
H          -4.84036898736626    8.25152484466584    7.87711899010268
H          -6.20847988469739    9.27699760927438    5.99702915568060
H          -6.82960368691021    7.74548388765538    6.59638580037656
H          -8.01545004648883    9.41904442070546    4.58060005332185
H          -8.84659283576966    8.13207748361840    1.93589894730222
H         -11.71855162110222    7.73923955741681    1.43791322549355
H         -10.45472144822447    8.40174866875011    0.39669874001385
H         -12.70881779272061    8.28417467477846   -0.72591757142038
H         -12.07056828462163    9.92927366463166   -0.66418484242609
H         -14.48248347800457    9.83512923705920   -0.00416584336942
H         -15.25804922477577    6.99214520411888    1.90993930858946
H         -14.17117629094840    6.90146341386946    0.50509677324249
H         -15.65107560847488    7.89069135486560    0.42049107672383
H         -14.13309142321317   11.05612423388400    2.20601385689572
H         -13.27613249073817   11.70687213973062    0.80428018609273
H          -9.80551058283981   13.40294713387025    5.29115097042653
H         -10.83528394503056   12.19730501951262    6.05336621867586
H          -9.88003078869100   14.04023629266565    7.56738752754572
H         -10.30188860013901   15.90707585892602    6.00759623915319
H         -11.05378220947782   16.19990703841257    7.58090791852427
H         -12.51108338576966   16.77010368787213    5.58499984056812
H         -13.25670605049614   15.66118934360855    6.73043059777710
H         -14.54150260296436   16.69602401315527    4.49904040957448
H         -15.56014264442280   15.16509632138245    2.05302740934291
H         -16.20334411228674   16.74930250078679    2.71872509352695
