104
 SCF done       -188.306759032481          0.000858308463
C          -3.74572939370514    1.01910301544345   12.78162435163465
C          -4.01068249003504    1.84181892194839   11.69520698489946
O          -5.25737929755837    2.25382556239310   11.33555913853105
C          -6.37104825131869    1.77231594665383   12.04686416967885
C          -2.94458546439060    2.29393173341175   10.87991555254276
C          -1.64640576673713    1.89195298186112   11.19758237825976
C          -1.39444556246043    1.07395126459356   12.28041832064165
C          -2.44501641070113    0.63989292060787   13.07118562534365
C          -3.24868594222544    3.15474790631199    9.76454793606793
C          -2.41407310181607    3.51632895739645    8.76843597994586
C          -2.83479797448482    4.36758400851575    7.70741105369167
O          -4.07860266129656    4.88961842498134    7.72050700883018
C          -4.23227362891842    5.63977028946448    6.59982547947784
C          -3.07845561945018    5.60553194897427    5.85281010820453
C          -2.16150882207925    4.78825132791163    6.55718294741895
C          -0.79154797143746    4.44360350712655    6.18283717510751
O          -0.07329141767036    3.75315910309547    6.87685421379350
C          -0.32495124894758    5.01270581871826    4.86451330866052
C          -5.46174908466085    6.32325747351391    6.36902308271217
S          -5.66072340033167    7.27124421645950    4.93420895702172
C          -7.28013743920347    7.73406535030599    5.39874808658336
C          -7.61360691757672    7.17953058980693    6.62232825874590
C          -6.59208945618780    6.37493754713791    7.16309410354373
C          -6.68995337863569    5.67386616841074    8.48410393972933
C          -8.09749158142611    5.74433408221202    9.08438794950319
C          -8.95695147347304    4.61309615186115    8.53172291918175
F          -8.89461303698601    4.46037652929381    7.20408491057400
F          -8.58714206244095    3.42986409199785    9.05957267572299
F         -10.25861813587246    4.75976418614777    8.83554377121447
C          -8.72973510464807    7.11707809769493    8.84926575516445
C          -8.89153935176141    7.42394910198934    7.36144415094687
C          -7.97504578309110    8.60090097358191    4.50726196402142
C          -9.30254653190779    8.86410768971450    4.50141121298600
C          -9.98783222083762    9.75939088824784    3.63171722781454
S         -11.72374427191879    9.61387592144938    3.56262236443390
C         -11.85018857428783   10.91209880570409    2.41406128402302
C         -10.59731630908625   11.42394688692683    2.11799410790676
C          -9.55190889265276   10.78495868872417    2.80580736895609
C          -8.12286991879597   11.21774180676642    2.67196654177435
C          -7.99965206398105   12.60915149551725    2.04130660490921
C          -8.27619204312681   13.68936579197859    3.08056730642423
F          -9.39630748850111   13.51869315175116    3.79277492648734
F          -7.27621360400926   13.75250733271282    3.98086031828844
F          -8.36035425303871   14.91323842390205    2.53155146240013
C          -8.90847693572366   12.73140079443431    0.81718109581054
C         -10.38135806174884   12.57765927706001    1.18703690860378
C         -13.10077646798086   11.33864004732643    1.89725950576454
C         -14.29143889170404   10.77719580383576    2.20533853795423
C         -15.54042525934369   11.20611756403816    1.68230148121286
S         -15.66165843454053   12.55788035072659    0.59632503848727
C         -17.38782157689593   12.38021366572390    0.46940562761339
C         -17.83332222791419   11.33243848633836    1.25014126229571
C         -16.79160620401709   10.66825213967225    1.92706709403522
C         -17.01368536049657    9.50372473191637    2.84616540484461
C         -18.42395872588990    8.92335886200562    2.70674171825993
C         -18.49109763526072    7.99045653990569    1.50262800319334
F         -17.97167972497749    8.48758627617691    0.37380333223410
F         -17.81943932687726    6.84905054419740    1.74445037844998
F         -19.75150332827826    7.62562370947332    1.20935034284762
C         -19.46498865195863   10.04194901607487    2.63266889102617
C         -19.26528009407919   10.92396262359167    1.40178966257746
C         -18.07834732606773   13.31402951378099   -0.37850937161929
C         -19.31011349399568   13.20822005984348   -0.87395237123776
H          -4.54664919756389    0.66792889276445   13.41356617894507
H          -7.24243884906711    2.17478161245592   11.53113028755204
H          -6.36780856299880    2.12104314735691   13.08491296792458
H          -6.41738257296193    0.67922829281394   12.02942706352756
H          -0.82778599554725    2.23893456206963   10.58685885388472
H          -0.38303771046957    0.77610339783247   12.51066270949398
H          -2.25789699638471    0.00155761921730   13.92175659162531
H          -4.26661960557338    3.51786813417249    9.73543663936545
H          -1.39496717860830    3.17135394861000    8.69772084018514
H          -2.92777085496928    6.11138598349839    4.92139950748239
H          -0.35843966806694    6.09963024153641    4.90008601339720
H          -0.97784377192364    4.67439853139033    4.06298487238559
H           0.69318348071589    4.68763322962818    4.66732485918183
H          -5.98320796859444    6.13425785156407    9.18058813720877
H          -6.38669275722001    4.62994424940132    8.37096542421106
H          -8.04091935252885    5.55202525734165   10.16200448337982
H          -8.07629415108709    7.86340638928494    9.30515385627964
H          -9.70204691216742    7.16968867150899    9.34197509278306
H          -9.19035545126030    8.46775099077465    7.24218911875573
H          -9.68642905930373    6.80223725466282    6.93882310596890
H          -7.34450702141072    9.03117141270553    3.74489122657080
H          -9.95103088173899    8.32614210586115    5.17567610538539
H          -7.58571413119132   10.50966569320667    2.03368567810762
H          -7.64312128684629   11.21438451729356    3.65448316755078
H          -6.95954894428282   12.77616113809328    1.73818021299313
H          -8.62279007260422   11.94313405622453    0.11795509803387
H          -8.74979977890551   13.69335586597554    0.32706052502604
H         -10.96603586868685   12.43605459002246    0.27561810796821
H         -10.74524185954784   13.49236648834204    1.66515586562784
H         -13.07797535496571   12.17452778332565    1.21108190644079
H         -14.31494292460289    9.94297474834699    2.89379158901635
H         -16.87382322281105    9.83257175274891    3.88067811954974
H         -16.27390269702576    8.72362820422501    2.64853485618504
H         -18.64049154441497    8.28214513990892    3.56886327475091
H         -19.36309828035214   10.64629812927792    3.53617178956683
H         -20.47000943021731    9.61665538699761    2.62001018306868
H         -19.89284636548589   11.81367357956447    1.48928299431381
H         -19.58312219066900   10.38344538815671    0.50535465549546
H         -17.48356703288381   14.18011415696744   -0.64405195276497
H         -19.94510006101477   12.35957142099923   -0.70213706810156
H         -19.71192678344931   13.98273509489471   -1.50410846436002
