73
 SCF done       -143.294878595285          0.000310657757
C           1.78596314964577   -3.47664624523463   -3.39236143220746
O           1.65293810498035   -3.67308043529812   -2.05118233034905
C           0.34078901548480   -3.51247063525654   -1.79688448127974
C          -0.59955936960757   -3.53578283449554   -0.73962106055609
C          -0.29990389106891   -3.80646976366932    0.67347681487947
O          -1.12366949675624   -3.82346357408170    1.57532130939420
N           1.00708544144692   -4.04336282196272    0.91043402126552
C          -1.81798184098103   -3.24293346678077   -1.38025408265803
O          -1.65248050329066   -3.05428262566003   -2.71684766721442
C          -0.34942468072865   -3.21698661051470   -2.96817344538644
C           0.60227881058836   -3.19462257554986   -4.01129138524733
C          -3.14199163401537   -3.09957196139052   -0.88678666765988
C          -4.29159960178231   -2.78132736591702   -1.59194070837396
C          -5.38809076726557   -2.71696221512486   -0.67428210319481
C          -4.85184435333789   -3.05709563477857    0.63864265860096
O          -5.38891555512648   -3.18341931959966    1.72495773389237
N          -3.49795027433901   -3.25032571553627    0.42657374685304
C          -6.51898007987862   -2.41857348288287   -1.41928490757873
O          -6.16247473967048   -2.33383386966168   -2.74281451207316
C          -4.79587258370336   -2.53109874751562   -2.91840780833790
O          -4.28552352440087   -2.47641114897604   -4.00217082023551
C          -7.90869899518447   -2.18286895454098   -1.22177868676639
S          -8.72054904937701   -2.30622132588433   -2.81426737973494
C         -10.33015074390710   -2.81903707469902   -2.33643434848510
C         -11.11298817627440   -3.66459404493854   -3.05773487657627
S         -12.65092074217941   -3.90030975270195   -2.32152955802030
C         -12.22733055945810   -2.86778152905447   -1.01306709789181
C         -10.97468643581411   -2.36096119006451   -1.16026401234041
S         -10.23362679919206   -1.22809428037648   -0.04469749071407
C          -8.52399629763861   -1.72096846417799   -0.07714855707105
C          -7.84407774112738   -1.50131749046503    1.14805388614805
C          -8.28774835877489   -0.67960934677105    2.13734449075253
C          -7.60533199677138   -0.47961529786911    3.35890522976841
S          -8.08143137378977    0.82975947109755    4.41126009803048
C          -6.83926136451420    0.40838861273888    5.55806602112744
C          -6.12755889705026   -0.70475111958374    5.13236889818113
C          -6.54747965161793   -1.19357632840817    3.90506078402850
C          -6.62374004828101    1.15137029948138    6.69840442406473
C          -6.41362404666443    1.83296615995722    7.68688895437558
C          -6.12882141201200    2.60174109843382    8.79702591984907
C          -6.54637560990292    3.89399406356209    8.93609306438265
C          -6.22379675679890    4.69643769438704   10.04084150575249
C          -6.54010863265810    6.02668167089195   10.15194597293052
C          -6.22063904262448    6.88930947531359   11.23151353500147
C          -6.62282540894427    8.17611975824424   11.06043196986023
C          -7.28649021618082    8.41301377648513    9.83101715909589
S          -7.39296284835736    6.92683369388140    8.90667296787589
C          -7.78426992489026    9.60344595791534    9.35636798976209
C          -7.74591962698793   10.87324599213331    9.99778805048126
C          -8.30153670520666   11.87608743785423    9.28269396170863
C          -8.82802919156395   11.47545109141033    8.00933653897490
S          -8.56788179360263    9.73683869785041    7.79480637642610
C          -9.42678632714426   12.24436746983418    7.08976845746175
H           2.77816297354486   -3.56479283812732   -3.78721067289186
H           1.69691836399018   -4.03390874000221    0.18019769244312
H           1.29200893350037   -4.23787774085382    1.85565059405503
H           0.44336897885412   -3.00189104027275   -5.05053558765719
H          -2.81387698627746   -3.49562156242185    1.14790597149036
H         -10.87812668910586   -4.14281454202697   -3.98626205530765
H         -12.92510337700097   -2.67645067206045   -0.22387165452852
H          -6.91582340754606   -2.02544298318947    1.29193603900267
H          -9.18550175362433   -0.09206827184782    1.98856627526530
H          -5.32287156845306   -1.12288011473430    5.71059675223659
H          -6.10928354982220   -2.04553813891689    3.41815356220838
H          -5.51814433160544    2.14371702991393    9.56609246167394
H          -7.13518750925966    4.34178066289102    8.14546007084471
H          -5.66891489630916    4.24935689392041   10.85622843743466
H          -5.69821007584546    6.52531602405572   12.09902695006318
H          -6.45941126406487    8.96121607495018   11.77678800253304
H          -7.30311691302751   10.99552019151264   10.97040991715469
H          -8.36284238990880   12.90095075118207    9.60326243468863
H          -9.56389427480564   13.29765379083230    7.25974103334665
H          -9.78569711518072   11.83974005313873    6.16139665497600
