91
 SCF done       -189.687074289321          0.000650043118
C          -7.25331942325001    5.64128906302163    4.13264954224185
O          -8.53566727880172    5.34911511911683    3.78423372092153
C          -8.44931135240063    4.27308455353240    2.98292579068375
C          -9.24613148932886    3.37051613092326    2.23639969400894
C         -10.70247405508104    3.35779904500144    2.10477686489860
O         -11.33425609503940    2.42244720997275    1.64082802584919
N         -11.30631640223531    4.47395083040757    2.56695526539209
C          -8.31884616427262    2.50493878364744    1.65310862854475
O          -7.04098379010788    2.81101781253110    2.02472090029050
C          -7.12603126627344    3.88720096321071    2.82556174807983
C          -6.34275330920218    4.78570847814472    3.58159743551725
C          -8.49241899085246    1.40521318262393    0.75955919864654
S          -9.96913361508784    0.52008077333200    0.65440891478891
C          -9.24573052019222   -0.63597349160395   -0.43746402217108
C          -7.91458912008802   -0.33325902353991   -0.69718590588774
C          -7.51147265481546    0.84773829662433   -0.04913245326540
C          -6.19511647965070    1.49650224465134   -0.38370009058945
C          -6.32197717129584    2.93611223889253   -0.44974345220786
N          -6.41144745776987    4.06788389914087   -0.58609346242937
C          -5.75843452957006    1.00591436814714   -1.77405316198490
C          -5.61085607163573   -0.50566741946282   -1.76296619065671
C          -6.89724627540293   -1.24430732104933   -1.34871731395829
O          -6.46801364064595   -2.21666445788682   -0.39983411611273
C          -7.32861135540537   -3.30328862515021   -0.18079152302330
C         -10.14021386868755   -1.63372774498954   -0.92542813789735
C         -10.02175197411306   -2.40829712187070   -2.02709106097183
C         -11.01878572397109   -3.34586437288240   -2.41874053005898
S         -12.50849911348920   -3.48538817672154   -1.53887240885038
C         -13.13759813074348   -4.68984860610717   -2.62375583003420
C         -12.23420060472807   -4.93415832735799   -3.64676421424640
C         -11.02058895258544   -4.21763392395728   -3.49857254730794
C          -9.81970783119251   -4.43209363921505   -4.36924082640427
F          -8.66379291445242   -4.25274936332631   -3.69386998730699
F          -9.74320354872003   -5.67465466051775   -4.85338011256185
F          -9.75827001030266   -3.58741818574713   -5.41309613114209
C         -12.58772646976502   -5.72967300516835   -4.86740830784366
F         -13.89210392281220   -5.60899488052901   -5.17573220919839
F         -11.93495636692073   -5.31562169471313   -5.95956586280636
F         -12.34936260378816   -7.04561247204680   -4.74109730620555
C         -14.40540265199372   -5.24271025347662   -2.29239555898722
C         -14.92647917885274   -6.43200647718028   -2.67984007727113
C         -16.20426789547605   -6.84959684199009   -2.22282476992194
O         -16.92114138703826   -6.06088471175798   -1.39674430725661
C         -18.09213314727109   -6.67775212818551   -1.11331132753005
C         -18.14065037509036   -7.89936501560053   -1.77260446352332
C         -16.93458156593394   -8.00932271320215   -2.47630283045627
C         -16.50299150773284   -9.14542800252515   -3.33122497765473
F         -15.33468914967895   -9.67907436476820   -2.92487968993342
F         -17.39586934665132  -10.14529052968175   -3.33362346687501
F         -16.32174690405796   -8.79216006949873   -4.61578859723432
C         -19.02201110380387   -6.05340455060470   -0.24774356599432
C         -18.75969343310522   -4.85806863002010    0.35511599409572
C         -19.62322358803316   -4.18354854798709    1.22908087078068
C         -19.29758075391592   -3.00137799055809    1.84731434205969
C         -20.10022210077398   -2.25574974079119    2.74823095593494
C         -19.50824530335695   -1.12962793787401    3.22707664262463
C         -18.19760741909034   -0.91323094281658    2.73428287339046
S         -17.75252419406560   -2.19657382244116    1.62553331449265
C         -17.33651705692599    0.11363103687089    3.04389587264695
C         -17.57512132608015    1.18879275962854    3.94754727717288
C         -16.53774794979114    2.04316119770852    4.07793505794767
C         -15.39108492691577    1.71224280597455    3.27921351376995
S         -15.73361617283158    0.24280981452542    2.35258367355260
C         -14.22721814539798    2.37218535022683    3.21166428223044
H          -7.11692151390536    6.48621935043216    4.77710847276397
H         -10.78064028240400    5.24371696949383    2.94159537145714
H         -12.30668418789320    4.54852255416341    2.49178580098619
H          -5.28082351128566    4.80917125382059    3.70115460979187
H          -5.43331336098083    1.24451724587490    0.36430403988389
H          -4.80948188424822    1.46947705170514   -2.04911434785627
H          -6.50993976097338    1.30676873973779   -2.50845334225040
H          -4.84435869063291   -0.79160809864894   -1.03973659408108
H          -5.29022229391019   -0.85310364319488   -2.74473932653657
H          -7.33345578561026   -1.75613242620702   -2.21503133542163
H          -6.78019796213079   -3.98803228584679    0.46413494644723
H          -7.57963483739430   -3.80861418093081   -1.12006862896177
H          -8.25480972043042   -2.99978406637834    0.31995584412709
H         -11.05504486217433   -1.71909714811934   -0.34837909671456
H          -9.16737004176451   -2.31307345024400   -2.67500035138068
H         -14.97673122389218   -4.65254114478246   -1.58760742978895
H         -14.40330274948496   -7.11784579754274   -3.32569755228498
H         -18.93537500850135   -8.61577005703629   -1.74613319900337
H         -19.95163906463584   -6.57389935615734   -0.07553005468483
H         -17.80529058403157   -4.38820333298869    0.15376956173248
H         -20.59387980158802   -4.61227590291300    1.43891564487754
H         -21.09057903073251   -2.58238183082828    3.01267397765549
H         -19.97345469619525   -0.45079714952502    3.91917714899525
H         -18.50982724032616    1.28443581196459    4.47074461064368
H         -16.53077976685115    2.90937229679721    4.71562693615167
H         -14.07962759949352    3.25258116187605    3.81475544518189
H         -13.41669740771774    2.05264126807838    2.58031924790091
