67
 SCF done       -150.210326376335          0.000392619815
C           1.65715855938388   -0.31292650900406   -0.80960880290156
O           1.08426095139659    0.12020789669755    0.34661740891479
C          -0.22173300788445   -0.18377696538109    0.23223288892958
C          -1.45169451629160   -0.08945113057621    0.92175179175760
C          -1.65180647435067    0.50118111933109    2.25660928307950
O          -2.72614481425519    0.58475301168407    2.82969288812758
N          -0.51534295336803    0.96253917666685    2.81546935681836
C          -2.37060958776774   -0.68043179834196    0.03522684025440
O          -1.76696878743716   -1.10526280872442   -1.10620286444260
C          -0.47158966724678   -0.80605496309629   -0.98936046466443
C           0.76438056730433   -0.88764188136862   -1.66791617305817
C          -3.77275017829415   -0.89977173572495    0.11922387046778
C          -4.59147415949729   -1.51263020823740   -0.81817333652906
C          -5.91710223887699   -1.52706973897762   -0.29420580678166
C          -5.89246168572639   -0.83423796762690    0.99834666160510
O          -6.78042585997671   -0.53907581201412    1.76515297356665
N          -4.55250038637776   -0.50574173840177    1.16942134747927
C          -6.71338429497953   -2.14462823380530   -1.23113914842652
O          -5.97072130213906   -2.46584601062614   -2.32864138724569
C          -4.62732616997693   -2.11900479097504   -2.12882143322828
O          -3.79831409987754   -2.32895584154564   -2.96736453371436
C          -8.11394579317041   -2.41707497254480   -1.27301284657253
S          -8.70226849167721   -2.43040668580604   -2.92992933835644
C         -10.24133675316552   -3.27095629385670   -2.77988062218423
C         -10.81265407430229   -3.94534331658414   -3.81478960105594
S         -12.33870262027642   -4.60940568023664   -3.38960486579492
C         -12.20143634623441   -3.99055542091661   -1.79215252536561
C         -11.04489783302490   -3.29751714991725   -1.61095779103109
S         -10.62752493253404   -2.52370139090083   -0.08648706293497
C          -8.85218766122070   -2.57887212586326   -0.12298157998262
C          -8.21572501884500   -2.80140908086517    1.12514045412377
C          -8.80486241079279   -2.67288921785146    2.34391320197775
C          -8.08966931969777   -2.87894224328831    3.54214045461655
C          -6.75786546191070   -3.21672338486371    3.76476549841970
C          -6.54474033097201   -3.28533211304661    5.17332967347897
C          -7.79861213572842   -2.97785465240059    5.84340522279209
O          -8.09686611965159   -2.91980332352574    7.01459132557306
N          -8.67508851810285   -2.74992968554494    4.78345910081139
C          -5.22260492694537   -3.60107701727862    5.37566603620098
O          -4.59229090846281   -3.73030362021693    4.17455623188878
C          -5.49471288854518   -3.49462464399638    3.13475501614079
O          -5.14204993760381   -3.54723159516836    1.98209261548904
C          -4.53020036493137   -3.79742046475094    6.59400807213999
O          -3.20249387064590   -4.14072384190458    6.59265067913631
C          -2.86624003107451   -4.26201622951915    7.88250529939524
C          -1.77250533781612   -4.57288735053008    8.72712688907122
C          -0.38202174066070   -4.93336281722405    8.37370440924156
O           0.47189219851001   -5.17336661323354    9.19855428705809
N          -0.15800179783147   -4.96212211071967    7.03957310075211
C          -2.30200321388179   -4.46859625378435    9.99533633203228
O          -3.60430865200749   -4.12747856728032   10.00433269900996
C          -3.96078874945721   -3.99857398773526    8.71221308818203
C          -5.04684976702514   -3.69624579298279    7.88200424045254
H           2.71277264246850   -0.15353665606194   -0.90326545260280
H           0.37582869237049    0.90413654030530    2.35500970025378
H          -0.57147436608298    1.38334031638764    3.72806512869043
H           0.96586401569458   -1.30183502682549   -2.63242335914644
H          -4.15217824977600   -0.04281350043544    1.99141876603470
H         -10.41961073104635   -4.07514918379493   -4.80229440995862
H         -12.98189945403113   -4.15329181998247   -1.07754263970026
H          -7.17927217458992   -3.10412868004568    1.09064796916652
H          -9.83652069896362   -2.35873788917465    2.42672033638122
H          -9.63728286313714   -2.48138263856482    4.92328117273933
H          -0.88659365729992   -4.78381361727257    6.37083584324871
H           0.75711520092999   -5.21984360846508    6.71083231336562
H          -1.82037752970354   -4.62207773992780   10.94091959525591
H          -6.05749691086789   -3.44075192163096    8.12864598153719
