98
 SCF done       -154.787485289513          0.000957828212
C          21.76546502943189   16.41710671428092    9.59659111558086
N          21.30020611634174   15.14785294791369    9.52665035566070
C          20.57055852871727   14.99266328063595    8.37772226655808
C          20.58387354139918   16.20687558372482    7.70918751336552
C          21.33859619276959   17.09786711784074    8.48270310573079
C          19.96208532427286   13.79021613134750    8.03130292573464
C          19.42762464900612   12.74338642103812    7.72802715891961
C          18.80087858603024   11.56177770470638    7.35116414868843
C          18.86171833525395   10.42055708124686    8.07551509169876
C          18.22591418490088    9.20031997684132    7.71610311879962
S          18.41793582146049    7.80639917441013    8.77351487357600
C          17.43669761822093    6.84302824765343    7.73217359561590
C          16.99561413595843    7.58591898185040    6.63060820108340
C          17.43858225203564    8.90807819438073    6.62187675089887
S          15.99653815248705    6.65424506452075    5.54764704560597
C          16.17712805975145    5.26363341191732    6.58321864960950
C          15.69271125542732    3.96175732314926    6.51357708998873
C          16.10930174273251    3.19169761406015    7.58736316446910
S          17.12223860020821    4.12268964275197    8.69659755351885
C          16.97348414245353    5.52611786236846    7.70601887720916
C          15.85943725928567    1.84380495979246    7.90324989513910
C          15.11773678100838    0.93506085952907    7.19437281514904
C          14.91443523922326   -0.42169041079720    7.56140071066471
C          14.15001913357387   -1.13689911878145    6.69301228660451
C          13.69588060904516   -0.39190992751254    5.58102705256549
S          14.27840856956498    1.25921302753351    5.68754551508551
C          12.92193769016543   -0.80863865411081    4.52119604318915
C          12.39546947773799   -2.09667916610869    4.26401035008087
C          11.68549267897143   -2.18031443434396    3.10997918095382
C          11.59386462167713   -0.96493832524124    2.37001249825393
S          12.45980239606924    0.29567686677835    3.24288675746336
C          10.96907464728491   -0.84372783878769    1.16330526997025
C          10.81434854928786    0.29337442911812    0.30851889879376
C          10.32106084024691    0.07658150383810   -0.99508329976676
C          10.18394355803203    1.12971143280826   -1.86003966916638
C          10.50982921990017    2.43741410037035   -1.45442645937592
C          10.97232231538416    2.67133609236562   -0.16671701333610
C          11.12359895927812    1.60734415975389    0.69632830087097
C          10.27743538292338    3.33583532532432   -2.56119525988338
C           9.81451364606729    2.58722471971794   -3.65771417513770
C           9.70795660052362    1.12337555191386   -3.29484320244513
C           8.25574910862280    0.62292696364746   -3.40192520505386
C           7.28755426696009    1.43187594648077   -2.54738220569719
C          10.61973947237744    0.25752134772748   -4.18344459183102
C          12.07799102053673    0.69750597912404   -4.13583606977664
C           9.53261097162615    3.19426905139028   -4.85550441186634
C           9.70590538825663    4.58098850296334   -4.99117326712217
C          10.14798866035351    5.31402199058562   -3.87987347099828
C          10.43828562264338    4.70961955407794   -2.67451502669865
C           9.45862992004987    5.28598905906420   -6.22608756696858
C           9.20310663120821    4.73406565185212   -7.42804999648743
C           8.98934753702693    5.47011067287921   -8.63166645298222
N           8.79469507480512    4.83719069062290   -9.82606510138767
C           8.62581066016033    5.75348959781957  -10.82385256890696
C           8.70880341771654    7.01577310748565  -10.24757948165107
C           8.93590586452259    6.83813093818063   -8.88544875104457
C           8.41713732662710    5.38904745862925  -12.15216921994626
C           8.24049824620662    5.06737497799023  -13.30685273942189
C           8.04032832052195    4.69178905007107  -14.64280157891937
C           7.88710732488285    5.56066360835298  -15.64030623898326
H          22.36298895265415   16.75056760881067   10.42231095090953
H          21.45724408141708   14.42103270345772   10.20483291935950
H          20.10184898891326   16.41075406594939    6.77394414517172
H          21.54577155176029   18.12357582405561    8.24985248111142
H          18.24493658062873   11.59807261501170    6.42357503249527
H          19.42689084990599   10.40969951169130    8.99799046413020
H          17.19247807963842    9.61472835767369    5.85172879060760
H          15.06960937155505    3.59991743002319    5.71894236250519
H          16.31454533648822    1.48110025223560    8.81606099847735
H          15.34752183849505   -0.82184781276169    8.46141815074916
H          13.90026298536417   -2.17532999732112    6.81905718266292
H          12.56386649269255   -2.92077348234056    4.93424871748103
H          11.21784817080275   -3.08058158222065    2.75068878708199
H          10.54812832480892   -1.76581988838427    0.77749489329958
H          10.07025919253087   -0.92903588247508   -1.30339449887068
H          11.21346943525625    3.67238127225451    0.15807234356375
H          11.47123341410835    1.79743627904858    1.69840912300151
H           8.22291818215211   -0.42455397297958   -3.09383740933204
H           7.94356200065735    0.67288224308180   -4.44751485615914
H           7.56844291602366    1.38067144307122   -1.49784380316526
H           6.27721574981731    1.04308341297778   -2.65365987052268
H           7.28914404524011    2.47620493482700   -2.85146422606486
H          10.25833019408519    0.31053617550385   -5.21295638561642
H          10.54322745490017   -0.78197439841613   -3.85674452470124
H          12.18012088239399    1.72498569759039   -4.47812791539329
H          12.68347184294825    0.05898043647647   -4.77529292186206
H          12.46447530455275    0.63508698684737   -3.12105997727555
H           9.17259194406290    2.60898317299586   -5.68801583610351
H          10.27363710009534    6.38278819654582   -3.98220793896091
H          10.78598492905590    5.29499911035791   -1.83631174701371
H           9.51574358643753    6.36425650373138   -6.16138134033453
H           9.16487901873383    3.65725417749364   -7.53553331580139
H           8.78572240170391    3.83909576519681   -9.95859096141500
H           8.61374701326259    7.94645316701131  -10.77126701701189
H           9.04723226727704    7.61741554853389   -8.15821202066874
H           8.01363666924868    3.62356413212309  -14.82571725394443
H           7.90958156711607    6.62366492748028  -15.46895317822873
H           7.73228600409355    5.23204728595993  -16.65329549619017
