82
 SCF done       -183.033581618741          0.000871201247
C          12.38951189150291   -4.54819037097582    0.98482227023237
S          10.75821534565262   -5.00625109899889    1.20828354551916
C          10.26880011275481   -3.35449972612052    1.45451656855904
C          11.35759685901427   -2.50855967435966    1.35893720735574
C          12.57466435380148   -3.19478968514811    1.08968190079507
C          13.84577970599875   -2.60109005770501    0.94035309124940
N          14.89410454748503   -2.15904363417566    0.81283550656906
C          11.23093020651100   -1.03219604865319    1.53060100594274
F          10.38103259854261   -0.48743256507897    0.63084737404197
F          10.71965013408569   -0.70418329087047    2.73886074254983
F          12.37994418534495   -0.37199231710164    1.41412029284577
C           8.91670026391795   -2.98928820441937    1.71812690029271
C           7.90421576865770   -3.87370530613981    1.82352888886737
N           6.62370325391874   -3.49478581310978    2.08324076421629
C           5.55331937595054   -4.31700073955810    2.21923401333459
S           5.71078548920523   -6.02865736550990    2.02224311041188
C           4.01079595991159   -6.20191710628346    2.34034418735525
N           3.52275007287381   -7.51828655104838    2.34387222299721
O           2.35365839626178   -7.69658951817333    2.60512799365331
O           4.34366442942167   -8.38538108105143    2.09020112292789
C           3.36730245483733   -5.02249535674113    2.57179837305842
C           4.23921755497087   -3.90779764093613    2.51394165734582
C           3.86984013666747   -2.55197781161433    2.75433160004130
C           2.60234871859873   -2.10772023960156    2.98262476583721
C           2.30555678831892   -0.76330685333412    3.25745162811834
C           1.03185864058169   -0.29608899291288    3.48174967442940
C           0.63849853538234    1.02790150176847    3.79102900369397
C          -0.70674280092769    1.17954525568891    3.96014341183076
C          -1.43568597112347   -0.01580339816565    3.78506939446056
S          -0.37492851257475   -1.34148335764394    3.41149761564616
C          -2.80645230584449   -0.22750665105676    3.86556241736431
C          -3.83102496418915    0.68380640146567    4.16756166903038
C          -5.06863830781989    0.10487953309138    4.15279081939761
C          -5.07296693588513   -1.27463325979429    3.83478195523877
S          -3.44746776109736   -1.82894234990308    3.55616042972503
C          -6.24345780576033   -2.01277844485533    3.77304738432675
C          -6.49636784686423   -3.35183876238053    3.47072253543360
C          -5.54024577729513   -4.35243240104455    3.12294460999877
C          -5.92823226458643   -5.71123068623612    2.82253405581281
N          -5.02484985748968   -6.54772386836175    2.28741810614980
C          -3.77484196840784   -6.17458993749393    2.18462601270022
C          -3.34985749896751   -4.90304477166916    2.67651619962837
N          -4.25454013471186   -4.02681747322636    3.07835668494631
C          -1.98306373724645   -4.55236723128125    2.68611670032772
N          -0.86265915624066   -4.30151848946108    2.67345876682224
C          -2.85042720983934   -7.02094900265720    1.51940964855407
N          -2.08444961350525   -7.65129235454102    0.94824736780880
C          -7.25086633661534   -6.16411920165213    2.99229453947901
C          -8.21467977959998   -5.17418373432267    3.27582773025750
C          -7.85004391966037   -3.80169826440881    3.50313947812752
N          -8.91144023021415   -3.04512984815637    3.75830800203968
S         -10.23739017400433   -3.95950305253555    3.71522075755237
N          -9.52811776134983   -5.36668450754023    3.37526898258863
C          -7.62137341547487   -7.53522931133768    2.85642618887452
S          -9.23067173953771   -7.97563054016138    2.40306662286987
C          -8.85942937218314   -9.67285700004555    2.46592382229887
C          -7.54419475734027   -9.87224553694311    2.82419901066807
C          -6.83847807802667   -8.66342589748168    3.07025513611648
C          -5.56258213220187   -8.60708368462324    3.66173235333004
N          -4.58293538003279   -8.57046233893647    4.25868495721667
C          -6.87655011062808  -11.20792354783939    2.90222321966470
F          -7.28324564548661  -12.04470961840835    1.92984827063709
F          -5.54824679258675  -11.13571064644754    2.78990818708681
F          -7.12264338456010  -11.84597445262605    4.06772667507504
C          -9.93166651952558  -10.59889180789669    2.18160444137951
C         -10.07545864280226  -11.81896734174141    2.68844222572557
H          13.13918705825801   -5.28827719446734    0.78721346122639
H           8.71556122789187   -1.93467915276877    1.84149997535370
H           8.06533473970074   -4.93623726220437    1.70820867206479
H           6.45584843055639   -2.50127752312715    2.19146436778290
H           2.31343208959300   -4.97341502882978    2.77878416055515
H           4.66535352355872   -1.81650186014131    2.76999926091040
H           1.77211655219520   -2.79906392570672    2.95656520352211
H           3.11783691796025   -0.04906079424171    3.30596780124805
H           1.35718018957749    1.82329391065308    3.88111326099175
H          -1.18850622782495    2.11037864265401    4.19991339875459
H          -3.64935357093602    1.72100394668728    4.38723021095837
H          -5.98436470807152    0.63076203828543    4.35940122260891
H          -7.14310308271337   -1.45058011050784    3.99873460223258
H         -10.69756563509933  -10.19345959090638    1.53261552458328
H          -9.37781373197460  -12.25522249015836    3.38022611307282
H         -10.92298494986150  -12.42598647580642    2.42270096658101
