89
 SCF done       -174.595495614448          0.000454269987
C           8.37382783386834    6.56827685931164    2.61962707788198
N           7.08826933649173    6.45781747429882    2.16608763169484
C           7.01952136382690    5.35637642150007    1.36494134148244
C           6.16913958028720    4.58466850706240    0.57374048903042
C           6.95200149227899    3.54411117716399    0.06609868204503
N           8.24477386936167    3.67593318919506    0.53228719529127
C           8.30443269891511    4.77500891809869    1.32763292859896
C           9.15809479783751    5.55181419911083    2.12790798730411
C           6.51708615585188    2.48789353794718   -0.77889610256522
C           7.28878794347355    1.48862605858350   -1.25313658901964
N           6.79364681203190    0.47087689397782   -2.03266887921638
C           7.50364867846185   -0.56675828442794   -2.50783094671736
S           9.21573081865411   -0.66905523234454   -2.23688347991986
C           9.24435638279807   -2.19697545963355   -3.07175388994615
N          10.48288696862479   -2.82374389212504   -3.18329928223705
O          10.53804961727936   -3.88980997626537   -3.77012926356205
O          11.43170758954444   -2.24323615278157   -2.67324471922740
C           8.01591143402792   -2.59705361967413   -3.51724526276861
C           6.99210557971314   -1.67808594686108   -3.21250781183812
C           5.61220026382610   -1.84452796735327   -3.54235121478178
C           5.06085719251010   -3.00051598252867   -3.98271396877965
C           3.68395286855454   -3.16288928694069   -4.27114928087528
O           2.80609705629007   -2.11947024007713   -4.24808028512371
C           2.98018410302433   -4.31751244991522   -4.56659597540250
C           3.10596683877009   -5.76203924098977   -4.77696647726950
O           4.06484797557948   -6.48769681626442   -4.74887663307328
N           1.79644456327086   -6.16726672704803   -5.03650363561225
C           0.84138352784890   -5.15258710254916   -5.01561588920978
O          -0.33719381782945   -5.30207412091247   -5.21041388887741
C           1.62410395411214   -3.95278335838348   -4.70923099204917
C           1.54637480120469   -2.58224200115802   -4.51446294772193
C           0.42625588666503   -1.73299918253763   -4.57643199006376
C           0.46756420912680   -0.36685297110871   -4.53130165631873
C          -0.68512498297783    0.42182873010520   -4.61587679282192
C          -0.70877127009089    1.79383341582327   -4.70781135270115
C          -1.86226224710926    2.60624480656625   -4.80672968774605
C          -1.60010681771730    3.93527694022820   -4.95334260840628
C          -0.22265612010438    4.24547018994452   -4.98418790145097
S           0.73115578267439    2.79717124891543   -4.78472797199709
C           0.34551479533418    5.49325310838597   -5.18659595741774
C          -0.33320634303973    6.71291625355492   -5.39174576351917
C           0.49088435998342    7.77472673576608   -5.62457613153386
C           1.86669870633134    7.44819481674649   -5.61422222644147
S           2.07354258932748    5.74517869206744   -5.27655143024920
C           2.96142407954264    8.26385164947298   -5.84437940974225
C           2.84202550804372    9.61319966953402   -6.16264634689908
C           3.89380822180469   10.46565893645994   -6.43608573949930
C           3.78712696909442   11.85710877035598   -6.79267271736236
C           2.63628770545158   12.60734218949939   -6.89086359315640
C           2.60764142198337   13.97044083371259   -7.24482963869235
N           2.51362313074574   15.08055830746967   -7.52540978925070
C           1.32944244413431   12.14114979428290   -6.65173110810492
N           0.23364075647713   11.84132561952018   -6.47298611947322
C           5.13822003824322   12.35834271858610   -7.03657774745412
C           6.05872326353360   11.30404923962972   -6.82079306669476
C           5.31918382911968   10.08437822125989   -6.42957513948565
O           5.80670620033761    9.00369553805358   -6.16067925880614
C           7.41382868237727   11.46088625620777   -6.97334088118760
C           7.88631817827154   12.72062589996785   -7.35912610101925
C           6.95977721194740   13.76715498764906   -7.57272576252163
C           5.58748733023129   13.60796875789927   -7.41749089732200
S           7.75468647703008   15.23913614784904   -8.04417102036476
C           9.30031215344535   14.43811509091954   -7.94917719055409
C           9.22752274866028   13.13653085503749   -7.58345213726364
Br         10.86495614215702   15.39683253309529   -8.34012643981222
H           8.65492271014481    7.37181187131184    3.27204947836820
H           6.33693077853023    7.08638515231821    2.39022346851237
H           5.12648654513948    4.73279582209698    0.37504619564545
H           9.00496139166954    3.05586897092387    0.31800567925459
H          10.19976076755650    5.40151828419778    2.32620471087910
H           5.46710805372610    2.51008887156739   -1.03826294702497
H           8.34386176282382    1.41321518706617   -1.04221999802029
H           5.80143796596751    0.49248373052766   -2.23458814065629
H           7.87699894774578   -3.51631817923980   -4.05534924730147
H           4.95723840067283   -0.99245029698942   -3.41324001373903
H           5.64689719144803   -3.89874686681714   -4.09807847474696
H           1.55785865180459   -7.13015189902037   -5.22651757762257
H          -0.51815183771617   -2.24272321844420   -4.70530008463177
H           1.42495763583581    0.13167442385781   -4.45353260321972
H          -1.64161999205964   -0.08445019171819   -4.63368849148713
H          -2.84964202172776    2.18121683255206   -4.77336076568232
H          -2.35662847763607    4.69227582611912   -5.05047093088700
H          -1.40568692607429    6.78154653704898   -5.36957088861934
H           0.13629796346666    8.77346807820284   -5.80491421446869
H           3.94860163442386    7.82903766049890   -5.79133469300900
H           1.84530286599417   10.02480030934804   -6.21417807003486
H           8.08980800735770   10.63780975923850   -6.80203559637577
H           4.92382566435173   14.43771885344782   -7.59365169145234
H          10.08281299531773   12.49465030292453   -7.47611944576718
