108
 SCF done       -189.513576340281          0.000722945629
C          -1.58193534696366    0.69665120567546    8.32186537911786
C          -0.87573589836887   -0.47552156888230    8.54856417632977
C           0.56441541134219   -0.53996405867146    8.40288512703910
N           1.22982058685578   -1.60547889929511    8.85307172650468
C           0.55345915439871   -2.65008696623601    9.26985299737592
C          -0.88315529666943   -2.67045250207736    9.19513311069909
N          -1.55483186710667   -1.59370391540394    8.89276477094051
C          -1.56950972825408   -3.87862696300259    9.47368098577587
N          -2.06591504624848   -4.88883655229029    9.68925877704959
C           1.24693313780021   -3.76055642829025    9.79730611816530
N           1.77296556798460   -4.69519166008068   10.20588670869127
C           1.29184648557622    0.54692928478409    7.85753374530248
C           0.56697342511813    1.74460686872055    7.68265314361570
C          -0.85833367637062    1.81719963456845    7.92487459277055
N          -1.33462703943413    3.04416199901288    7.68270876488824
S          -0.12783443118946    3.98784410792137    7.20802846643056
N           1.06279065296161    2.91062137139018    7.27065567393713
C           2.65080337932064    0.43633891892801    7.47361394589286
S           3.65015529883446    1.84473602017855    7.29140227070254
C           5.00013377212946    0.92609237740757    6.78269482139668
C           4.71005220941545   -0.41463752786214    6.70250393845161
C           3.36598814888708   -0.70960718362505    7.10514479481815
N           2.90157452365873   -1.96790308189201    7.05909758163972
C           3.71703670768475   -2.92767128188543    6.69682923491440
C           5.08046870611783   -2.62132752044103    6.25005395537044
N           5.84211156669950   -3.56098904825734    5.64673187760104
C           7.20013682571281   -3.29834707660766    5.24160542491477
N           5.53635774438939   -1.39403512649476    6.26954868880518
N           3.18568964298489   -4.19437441563495    6.62162852981116
C           1.75467548710968   -4.33188338936155    6.43846547011928
C           3.86504661101508   -5.34502530448432    6.96528291653814
C           4.97703992227536   -5.41047460449583    7.71968363214573
C           5.73040013066587   -6.63501085973998    7.90398447271303
C           5.70517607983255   -7.59009426889691    6.92673319009869
S           6.69681330624629   -8.95885225682540    7.21826844420273
C           7.20813838431545   -8.25151484445645    8.71690071516455
C           6.61876503991930   -7.00773572670349    8.98780244426926
C           6.96097096988889   -6.35910532799566   10.20402129869123
C           6.18092431065013   -5.13765465503759   10.61635452433022
C           4.73195073188037   -5.51915752526013   10.92506045472252
C           7.93386001627979   -6.89923581640396   11.03935477110634
C           8.43840111885671   -6.12997326879943   12.23519889379342
C           7.72732387434294   -6.53304718110903   13.52720246576767
C           8.48809457743878   -8.17918913862823   10.77770405821267
C           9.36905385388246   -9.03432304451947   11.55226698462673
C           9.59153466142419  -10.22662441428817   10.91985663847869
S           8.80022636348067  -10.41081082376763    9.41145321249327
C           8.09190777298017   -8.83878211519435    9.60533965902860
C           9.95873716571515   -8.80759145847095   12.85189874118717
C          10.17526894849357   -9.80009999024802   13.74506781612001
C          10.78031293350626   -9.63744625740570   15.01294582640539
S          11.00662895369248  -11.03505146916832   16.04687611837688
C          11.76962291139772  -10.13211464280882   17.33978859175941
C          11.83185062373307   -8.78554243452666   16.96210511090544
C          11.28056632825760   -8.52243110779879   15.67733357001853
N          11.41558496864964   -7.18533738485234   15.48272382230663
N          12.00470903340445   -6.59419640109512   16.53682844086019
C          12.26279931688386   -7.52026575846852   17.42609560791203
C          12.23216477122153  -10.72088518212615   18.51940811901495
C          12.06460099179075  -12.04746084908566   18.83137175844083
C          12.50729148116481  -12.73524761850157   19.96690745127093
C          13.44632049376387  -12.36102766411737   20.90627186505332
C          14.37353377425048  -11.29379182905767   20.93641403669594
C          15.18550532553330  -11.28200207675245   22.03046460248649
C          14.95145182946388  -12.34030256777797   22.93853772037916
S          13.67105482844712  -13.36787151797068   22.33349122599576
C          15.60057896907992  -12.59238547590606   24.12746264629577
C          16.64411035301565  -11.82964273861832   24.71793166695549
C          17.09419765103165  -12.31756932152492   25.89641598239707
C          16.43423525009878  -13.51349268392954   26.33250019640535
S          15.20736581976207  -13.96724801944619   25.13852386374723
C          16.66179211369170  -14.21719170847136   27.45077624595456
H          -2.65117032116353    0.72541421087641    8.44091722862308
H           5.93821895160473    1.40298567542206    6.58329416994282
H           5.57185047712936   -4.52797994112272    5.73582713019536
H           7.30776649892068   -2.22680169869554    5.09638624845346
H           7.40575061934476   -3.82307495971461    4.30963863147015
H           7.91441615095495   -3.62922720993445    6.00058875853103
H           1.34737965405185   -3.37568555995656    6.12006872426418
H           1.26537147411608   -4.63730917329544    7.36582249009877
H           1.56051596754550   -5.08717277793006    5.67455115588354
H           3.38767131052317   -6.24669564301489    6.60543298550175
H           5.35988664173367   -4.50261142612820    8.15611733815068
H           5.16405273760540   -7.54959973478133    6.00151697254693
H           6.21800305853485   -4.37512741336521    9.83910040672913
H           6.59676949418244   -4.68577248605108   11.51231694809206
H           4.16837749991607   -4.64358445952870   11.23545592726157
H           4.70346028281919   -6.25137971913446   11.72874841685979
H           4.23499598588889   -5.94631384363616   10.06004673211001
H           8.32235477047421   -5.05824942188740   12.07603063193696
H           9.51130460949953   -6.29710834799819   12.31984736074927
H           6.66625478952992   -6.30830711432745   13.45692411682362
H           8.13795512136440   -5.99000394892460   14.37646121734068
H           7.83777559677988   -7.59948540740102   13.70998382727894
H          10.22654599951037  -11.02009819778449   11.26178379959378
H          10.26001155686290   -7.80951735316459   13.11714863298853
H           9.85406823716947  -10.80654099913276   13.51496130129986
H          11.13617241063265   -6.62192302649601   14.69859526484132
H          12.73524208586413   -7.26549991463712   18.35298381797977
H          12.70219126465150  -10.04605038903049   19.21925149182697
H          11.47365740039669  -12.63132660370378   18.13436663658959
H          12.05833849786389  -13.70743519877755   20.12834613980165
H          14.45856453977775  -10.58617085458154   20.13270512588488
H          15.95134394043680  -10.54657526667530   22.20136623982139
H          17.02587274078809  -10.94237814802743   24.24468061833690
H          17.87801947999132  -11.87686488329121   26.48637729270436
H          17.41521906168075  -13.90434312456491   28.15187524858203
H          16.10435874695058  -15.10565492781240   27.68327636820335
