108
 SCF done       -217.647773910085          0.000790724908
C           3.05134240723690   -2.27545544332152   -3.61334668984602
C           2.68381651655209   -2.85348924123570   -2.40704095484972
C           2.48129978598109   -4.27693596493991   -2.29208579568411
N           2.10730988241401   -4.80513933450739   -1.12852256731121
C           1.93092778647867   -4.03228045212582   -0.08130700031973
C           2.15350045404342   -2.61747362142059   -0.19127734727928
N           2.51265008448357   -2.06836201164812   -1.31946856057708
C           1.96941173210600   -1.79412541312574    0.95152600900638
N           1.80755289830358   -1.16136428662468    1.89164872362945
C           1.49917064200784   -4.61019660047986    1.13519348921902
N           1.13262275202612   -5.05291705873250    2.12681691749309
C           2.65025828787977   -5.16744458601787   -3.38877361237104
C           3.01440502783753   -4.55558500867424   -4.61250468172128
C           3.21100471123659   -3.12155873479892   -4.70599539731571
N           3.55435171263514   -2.75001271252151   -5.94505516233963
S           3.62276038095221   -4.03862980370720   -6.88386062722242
N           3.22415075249162   -5.15149403596447   -5.78827763863583
C           2.45113182040711   -6.55129565033653   -3.20094592628562
S           2.05322246111167   -7.20258354067125   -1.62420670235710
C           1.97335097075512   -8.85226212909226   -2.19590846029950
C           2.23420170760327   -8.89247664961172   -3.56506568367765
C           2.50944366938345   -7.60830491767547   -4.11542281779869
N           2.74942419487734   -7.80348251822887   -5.42619495023907
N           2.65061358314160   -9.09828328268103   -5.75376038081116
C           2.34469913652690   -9.77108901354067   -4.67173342944653
C           1.65322856957752   -9.93181381672201   -1.34395052813256
C           1.52204326065691   -9.78778139635408   -0.00407973919501
C           1.20700550097939  -10.80907857128443    0.95393582233123
C           0.29200961353906  -11.87526899184858    0.80103782437537
C          -0.61975703173673  -12.01861109501679   -0.35123251587639
O          -0.74049776115231  -11.31571380490019   -1.30980809298851
S          -1.66580169588762  -13.46124130931959   -0.10866166895154
C          -0.94320440634110  -13.84566855978086    1.48474719319041
O          -1.29730722068451  -14.77787292364046    2.14183873563625
C           0.08480762002647  -12.83254765269334    1.80285869400643
C           0.73120422724828  -12.78874069176612    3.04647989824636
C           1.59516610553329  -11.70218127406363    3.20734164218302
C           1.83014340389608  -10.76815609130075    2.21462944743873
C           2.88782404640357   -9.85618129525652    2.71444002335252
O           3.40732122194251   -8.92112284525517    2.19115660970126
O           3.23133172027458  -10.28936087508731    3.97537077856661
C           2.50922683341007  -11.39774936123889    4.33434188901160
O           2.65957449716075  -11.96485181026301    5.37141596127143
C           0.58330397546601  -13.75448592979283    4.11938780111464
C           0.87974943238016  -15.05192326380763    3.99134286525993
C           0.80966975492493  -15.99511731247401    5.07455228079877
C           1.73063649257589  -16.98782112525673    5.41159070553670
C           1.24767124639232  -17.78067112408985    6.49089475544239
C           0.02255561695302  -17.37126496870048    6.94241139490516
S          -0.60093333850293  -16.02116939552920    6.08279183284798
C          -0.52771587634749  -18.33352139000258    7.91956437180842
C           0.76504419285580  -18.97688458053987    8.42940183163915
C           1.75114569577968  -19.00397588780064    7.23426176085289
C           1.67698402351935  -20.26601158384065    6.35149936770641
C           0.34722510334754  -20.52740640107229    5.65330396795823
C           3.19929905480860  -18.87660284664852    7.75661976358994
C           3.59175187988824  -17.48719304253122    8.24802857126223
C           0.30244748620793  -20.14886226494772    9.27425502402248
C          -0.73927083175020  -19.52685950930151   10.21906404931802
S          -1.40496641314697  -17.96401174357456    9.47488385916410
C           3.03541970704132  -17.15674732646630    4.85243393888358
C           3.68155713173836  -16.23719948883049    4.09854022669920
C           5.02577487538870  -16.25302613611674    3.61162954419907
C           5.98398321320560  -17.30681242211914    3.60405737772827
C           5.66395833702164  -18.73882220318194    3.76064396723663
O           4.59741203884369  -19.27221601410453    3.87469877522525
S           7.16216419330466  -19.71647691768472    3.67839852860490
C           8.18296487256259  -18.29255187085172    3.31098353836807
O           9.34204041695556  -18.39843779370106    3.04816546061992
C           7.34150892901913  -17.07567371663444    3.33953584575452
C           7.86131755598493  -15.80914841816422    3.01382659504622
C           6.88196263603014  -14.83152975161894    2.81827803107783
C           5.53499240737001  -15.03815221682513    3.09686163911545
C           4.83480058231214  -13.78889039891357    2.74306278881252
O           3.66731341619112  -13.50942816126152    2.75684284139579
O           5.77138916718009  -12.89333248096671    2.30064276696091
C           7.03421154754839  -13.44640813544209    2.32668479492906
O           8.00367163541067  -12.84690375301517    1.98124170239931
C           9.26715996939213  -15.47068047038925    2.85354334892899
C          10.22772988702976  -15.81826113703768    3.69944021069298
H           3.20514417536728   -1.21384141686520   -3.69405945146871
H           2.98550073249853   -7.08368299784399   -6.09808478785185
H           2.21221864859083  -10.83292588952859   -4.70729595252007
H           1.54462171506406  -10.89641316065496   -1.81893246340775
H           1.76024033508602   -8.82395714848373    0.42948938509281
H           0.35633220188262  -13.34419512248657    5.09440203103726
H           1.21130114732008  -15.44118846234253    3.03689488022072
H          -1.18289436457439  -19.03911872840930    7.39808270422843
H           1.19054842336668  -18.24838541964745    9.13063346250519
H           2.44308325359746  -20.17571812442754    5.57839955649051
H           1.93668340407039  -21.12700893519912    6.97147135449149
H           0.01744092991900  -19.64975347873150    5.10259695459786
H          -0.43151121712567  -20.81627319903088    6.35362026082976
H           0.47130292717920  -21.34250414423871    4.94402707066879
H           3.31809593990094  -19.59346759541937    8.57272061332061
H           3.89476191684128  -19.17592970276490    6.97060331873262
H           3.56147754584989  -16.76132836190712    7.43918095815455
H           4.60482589948886  -17.51422890208636    8.64287130328806
H           2.93494953648503  -17.13751098314092    9.04072648820027
H           1.11182410401165  -20.59554749875279    9.85077070617233
H          -0.15463855061730  -20.92393350498267    8.65874129028241
H          -0.29816975315763  -19.23725461232394   11.17129948757787
H          -1.58244116409029  -20.18824505340027   10.40798028862633
H           3.51750087396713  -18.07784157152637    5.12853959932154
H           3.17818304636616  -15.30016750347183    3.91559900190425
H           9.47977564873761  -14.80345389171815    2.02920209024152
H          10.04015220952862  -16.42178586815458    4.57136912827916
H          11.24188855628875  -15.49347316171675    3.54961186808109
