90
 SCF done       -196.443267611944          0.000449443537
C         -10.27096310584601   -7.47578322132370   -0.30341129274532
C          -9.54735670990660   -8.65851673756407   -0.28342417968425
C          -8.25672191264215   -8.73213641427089    0.35633231871125
N          -7.57855452938611   -9.87602195484583    0.36641396883691
C          -8.08551998351156  -10.94493127603757   -0.21198509528565
C          -9.36699918731565  -10.86962749649259   -0.85185139614170
N         -10.05760882821160   -9.76147273218094   -0.87634880291390
C          -9.89734429631713  -12.02937466016309   -1.47747200497810
N         -10.29242361581387  -12.98320573795684   -1.97213490181044
C          -7.35171763402368  -12.15200515696261   -0.19329296241212
N          -6.77362227442802  -13.14203941896656   -0.19221284727378
C          -7.64973532157778   -7.61154003557524    0.99145388501249
C          -8.40869660649463   -6.41466551746997    0.96458475459356
C          -9.70570910924731   -6.36586728272074    0.31805640498623
N         -10.25411817311592   -5.14909983030631    0.40195483630572
S          -9.26811121910369   -4.17580235707859    1.19705383177287
N          -8.08071108923799   -5.23235927519929    1.48617421681977
C          -6.37665356263722   -7.75684554148192    1.57178732519924
S          -5.52725017737883   -9.28700923316550    1.53119660673822
C          -4.10674634889789   -8.65626430648767    2.35090910216713
C          -4.30092434451110   -7.30127041429637    2.66074379781700
C          -5.56510358619958   -6.81968251201436    2.22525251818813
N          -5.62655171215168   -5.52412726137892    2.58607761532186
N          -4.51370253017426   -5.14116293747108    3.21743781257718
C          -3.70672656052860   -6.17489680971594    3.27794907296939
C          -3.01157715652288   -9.49566371270030    2.56208460039243
C          -1.80252950434246   -9.08428811682893    3.06149839506440
C          -0.69119668253684   -9.91261804954519    3.24146234092834
S          -0.69041903083242  -11.64110885990911    2.96193855778626
C           0.99917814068398  -11.83894978968284    3.35777701714087
C           1.55023811795778  -10.59362546557759    3.69619228726690
C           0.59822667714994   -9.54129293925451    3.63911440338631
N           1.25282516216141   -8.41145540868245    3.98804315312420
N           2.54088694086625   -8.66528279488787    4.25820162723139
C           2.74958975761063   -9.94701480253085    4.09502738706310
C           1.57871276481496  -13.11811609025255    3.30652886318731
C           2.90874789127563  -13.32775758453463    3.50669743519031
C           3.62474499746983  -14.55744018670491    3.43786587076924
C           3.15401065393589  -15.86730299241099    3.72165483021139
C           1.85729293363730  -16.15782752165013    4.36620494890105
O           1.06656053681733  -15.39431979626726    4.83486151359804
S           1.61627636174869  -17.93689071412406    4.45296339348783
C           3.21880059909837  -18.28358744199735    3.73754409819095
O           3.57017061336154  -19.38544276205671    3.44480143990490
C           3.94273888215665  -17.00549564350623    3.53473995852548
C           5.28285447080063  -16.95258760836839    3.10809729580482
C           5.75297554837625  -15.65648264032108    2.86441408234271
C           4.97896342721445  -14.52076493263727    3.03828704537363
C           5.83848644068896  -13.35832760467245    2.72454372405475
O           5.60039837767872  -12.18880714674800    2.75509931330336
O           7.07584936821428  -13.84670650785438    2.37358510853657
C           7.10344086292077  -15.21762474107072    2.43928688743402
O           8.07374240210122  -15.86090077584974    2.18739958169600
C           6.17560510161786  -18.08110279621857    2.96587497104037
C           6.33923064083621  -19.04017303583310    3.89781139755379
C           7.29089375282773  -20.08575791495671    3.72824670731752
C           7.64450858729750  -20.96623905355640    4.70148837405204
C           8.59069400931718  -22.06753424547603    4.58405638042934
C           9.18481018618365  -22.51739585784534    3.43599338145712
C          10.08588434974732  -23.60348477697032    3.38482451507991
N          10.82360740340172  -24.47596903083344    3.27815180844972
C           8.97868156414608  -21.99198341857383    2.14147871479752
N           8.86469800342087  -21.63490361800495    1.05669563773982
C           8.76824088400361  -22.64152226785281    5.91165314516372
C           7.91940383213280  -21.96544408687123    6.82294777816656
C           7.17330187415992  -20.90992275271601    6.11465359173984
O           6.37107467144571  -20.14451530027723    6.60244561866623
C           7.86448706305730  -22.28084408234038    8.15958096869428
C           8.68950219830995  -23.31038214680244    8.62204579014790
C           9.53694871131299  -23.97965903132928    7.70514312952162
C           9.58994514600260  -23.66312792849297    6.35405372736564
S          10.47800728228372  -25.21209515725394    8.48766904614033
C           9.73252765820829  -24.81794175957086   10.01415172639142
C           8.82417858595681  -23.81543879605049    9.94373888682434
Br         10.22554491055323  -25.76411933303999   11.55535063308942
H         -11.23221801067247   -7.42379880197206   -0.78327815124333
H          -6.40765734589880   -4.90179532053948    2.41149029032412
H          -2.75497308802232   -6.07693945449348    3.75911507003958
H          -3.13131645436565  -10.53272380851759    2.27643402866537
H          -1.66700066483193   -8.04176955445166    3.31255509875960
H           0.90668486086232   -7.46907677331184    4.05902910712293
H           3.72841334465742  -10.35003426701970    4.25392227623515
H           0.91299852569091  -13.93173284245953    3.06137317271628
H           3.53642915414112  -12.45733726304471    3.62408971702499
H           6.82476949209481  -18.05813001411914    2.09911138164037
H           5.77501388110666  -19.02261538564603    4.81820932237338
H           7.75705473048409  -20.15347505904915    2.75386798398972
H           7.20692179691364  -21.74642627778549    8.82715727642798
H          10.25491215166327  -24.19995003969037    5.69860535431736
H           8.27222407429088  -23.44560799532707   10.78842239693664
