96
 SCF done       -176.018464341877          0.000447258909
C           8.31272011803706   -5.06120021222281   -1.53010346033052
C           7.56914023518044   -5.85669484851922   -2.38540850906321
C           6.12581751173595   -5.87800713896537   -2.31572960188881
N           5.44906931861637   -6.72818678388085   -3.08040209041153
C           6.07827729944854   -7.51402780463797   -3.92970185365945
C           7.50288258017222   -7.43213914964046   -4.05099132738215
N           8.20458519641533   -6.63548956296959   -3.28962151798285
C           8.16378448909173   -8.23926975899776   -5.01372326167240
N           8.65479313516598   -8.90525402817150   -5.80516769269067
C           5.30020117844338   -8.41932356501966   -4.68296148451488
N           4.64023867734853   -9.14522962286473   -5.27694031940402
C           5.37457193579879   -5.02605592290278   -1.45510325195304
C           6.16056367271975   -4.31410566618930   -0.51478968651808
C           7.61235908483576   -4.33275934734153   -0.57353096998866
N           8.15999367939388   -3.61600247746975    0.41281398868705
S           6.99719911565758   -3.02511384314721    1.34111910723863
N           5.73395137224999   -3.61863092957246    0.53920164937413
C           3.95715064725986   -5.01497599717652   -1.57618763278036
S           3.20193767418689   -6.38702915863933   -2.34477721450337
C           2.99427557879938   -4.06136341561922   -1.21447684303678
C           3.34969320547901   -2.67898593444033   -0.77420556959195
C           4.03807867546863   -1.89954015407715   -1.90486162417148
N           4.23753055552603   -0.52990484148566   -1.47163687895253
C           1.67617100431633   -4.47425231755266   -1.45601611707863
C           0.46638257684837   -3.67569216892669   -1.10072190544877
C          -0.02890074281517   -4.02530688254101    0.32765038376473
N           0.86993448908952   -3.67834333985568    1.40125502049983
C           1.60340759902547   -5.75583723581914   -2.01386709314885
C           0.50572658058508   -6.54961488715582   -2.37497643605437
S          -1.17613794076724   -6.16109901587998   -2.05792288479510
C          -1.80263647439244   -7.65089648229328   -2.72318782706283
C          -0.73543255911246   -8.42177055288260   -3.19628740861528
C           0.53184498047873   -7.80273604027285   -3.00307860815122
N           1.44992134585307   -8.65280796735156   -3.51711847537431
N           0.86763460720582   -9.74542860874807   -4.02270208016756
C          -0.42479555918184   -9.64237337482047   -3.84692319054396
C          -3.18986714554734   -7.87289021558579   -2.70300012962747
C          -3.76583175544524   -9.05760052869649   -3.05695002140061
C          -5.13310012364376   -9.41707349397103   -3.09762799750026
S          -5.45136002869242  -11.11195160048669   -3.33138742487909
C          -6.32821202958537   -8.69988843020618   -3.01255538126888
C          -6.39557000468133   -7.24258414356198   -2.68710631846186
C          -6.28095740180327   -7.01702079537423   -1.16951042515438
N          -6.35210804015616   -5.59489060814358   -0.89176263709624
C          -7.47008840495943   -9.50492293605669   -3.18884753216879
C          -8.85237707141657   -8.93882927571301   -3.15141929646968
C          -9.20396928496520   -8.20426174112081   -4.45726558399106
N         -10.50491213464562   -7.57446407707144   -4.31195844224267
C          -7.16714126560518  -10.85520881560201   -3.34851129611973
C          -7.99190161712358  -12.03302658612705   -3.39397993942781
C          -9.20600237169179  -12.16532256729947   -4.10652737888950
C          -9.99310628855264  -13.38087032934537   -4.04186235547861
N         -11.17614030861473  -13.45368227040200   -4.69209844479416
C         -11.55647573531926  -12.44825228125363   -5.42948680973260
C         -10.72235531637247  -11.28694299120417   -5.58123898458188
N          -9.59922930167829  -11.17174186470273   -4.91582712899222
C         -11.12451009660676  -10.24087477472277   -6.44587800855515
N         -11.49318517873943   -9.40041126918727   -7.13315385306407
C         -12.80703347644329  -12.49949648857760   -6.09790274471052
N         -13.80934915169883  -12.49424835637332   -6.65169393520705
C          -9.57320528817777  -14.49336047822792   -3.32696677088560
C          -8.35263133426636  -14.40612409063828   -2.67137071147697
C          -7.56489877851519  -13.19184618091671   -2.70895458482651
N          -6.44239463660166  -13.31697795157464   -1.99580249432046
S          -6.37819044922598  -14.78962924420269   -1.36929544950126
N          -7.75828118515887  -15.35929770523487   -1.94258332739790
H           9.38722224932152   -5.04646044373557   -1.57724402950871
H           4.01967907641861   -2.71837313874802    0.08419848051801
H           2.46383126799069   -2.11738542661271   -0.48735582979855
H           3.38630375718561   -1.88011842125846   -2.78402135522522
H           4.97117286985286   -2.41468724939134   -2.19178197491613
H           4.61816598429968    0.03470064704690   -2.22221287833952
H           4.88841883595924   -0.49778423367503   -0.69377865229015
H          -0.33724026338936   -3.88022527617651   -1.80902359486243
H           0.68145660859646   -2.60781572763422   -1.15091187506362
H          -0.21404084586520   -5.10095787104161    0.38807782450673
H          -0.97504268994602   -3.50729442262990    0.50255052074638
H           1.03466663912876   -2.67844194185857    1.43095225049250
H           1.76528569496395   -4.14120171399659    1.28962026269995
H           2.44802696347961   -8.54076630476087   -3.60297946001836
H          -1.07599409764381  -10.42047749805164   -4.18833140124417
H          -3.78082423452986   -7.04534319589270   -2.34756817306871
H          -3.09492668394282   -9.86412467752963   -3.32040219736467
H          -7.34037947425694   -6.81195764105651   -3.00838872779597
H          -5.59728221729684   -6.70622642464602   -3.20191901190265
H          -5.36493110729819   -7.50117076730144   -0.78877580921802
H          -7.13170341662764   -7.49461270843914   -0.67592870654390
H          -5.53359452462305   -5.11499123754032   -1.25113982550175
H          -6.40303377941718   -5.42285880040523    0.10522145347332
H          -8.94437924974718   -8.22896582360374   -2.32824057087762
H          -9.58048782964009   -9.73357109678681   -2.98996629209159
H          -9.14484396605638   -8.91726264154618   -5.29165824199922
H          -8.47726797312191   -7.41144727204126   -4.64928029549699
H         -11.22805250359520   -8.27895257758897   -4.20503033347429
H         -10.72982068385241   -7.04121551429082   -5.14463787953053
H         -10.17616404480539  -15.38418946902238   -3.29610560055344
