86
 SCF done       -184.263081611785          0.000400141124
C          -5.45292604906080   -0.49714821268658   -0.24682593228890
C          -4.19875463488706   -0.65529643605672    0.33667704063468
C          -3.61798275452707   -1.96281015314306    0.52338449653747
N          -2.37664922582592   -2.09046028274322    1.03268670257865
C          -1.74681151108733   -1.01411890822844    1.41751574259138
C          -2.34887993493387    0.28996746589465    1.28576971977115
N          -3.52236924867674    0.44141746541125    0.73883304606512
C          -1.63610769870965    1.43037075118117    1.73946950863137
N          -1.02814098668054    2.32399811283622    2.11733896596430
C          -0.44355559578153   -1.13941099952875    1.96246289723590
N           0.60823687534536   -1.21419906225744    2.40935417421276
C          -4.31473556418300   -3.12354141608186    0.16007396736798
C          -5.58037873535615   -2.96201272131382   -0.40172619006700
C          -6.14161573087015   -1.64220246565591   -0.61869527987947
N          -7.35940145853554   -1.71834820981473   -1.17725583775950
S          -7.73634932905757   -3.25194344374825   -1.38647404809830
N          -6.42253657799194   -3.93101375141453   -0.78445970650529
C          -3.71111427591535   -4.43802383350598    0.34149473404436
C          -3.24769900923106   -4.89991602902224    1.57810966505503
C          -3.46035107728188   -4.16524987828373    2.83912650627925
O          -4.09974944049439   -3.16894333779704    3.01811961710220
S          -2.64865300214365   -5.04793958254212    4.16387249520311
C          -2.15015597674485   -6.40732995270126    3.09385134009999
O          -1.55350568236229   -7.35651557466675    3.51165091030431
C          -2.59922206705646   -6.13000023386449    1.71998529756383
C          -2.38169272079777   -7.00643486562900    0.63196077412568
C          -2.92498343562751   -6.56444608546104   -0.58810625369383
C          -3.54332843631334   -5.32152855178282   -0.72284055471459
C          -3.93377973415410   -5.16588156109799   -2.14210827841108
O          -4.38253368486462   -4.22414933339422   -2.72158986043721
O          -3.65656943294774   -6.35503096613179   -2.76215091150760
C          -3.07238589626262   -7.25245867652280   -1.89290253173467
O          -2.81982327048311   -8.37024272481131   -2.22064093423817
C          -1.66400538455971   -8.24125472916974    0.79012985550414
C          -0.84588240764358   -8.77405573492800   -0.14281958427138
C          -0.12972948291647   -9.98323330602007    0.05544563028241
O          -0.31043704800007  -10.74171003329518    1.17451850443212
C           0.80579533233083  -10.60767568345991   -0.74681023181592
C           1.55617711875091  -10.51033300395028   -2.00851136084689
O           1.55964767768630   -9.66839223336189   -2.86531695658654
N           2.33593974652189  -11.66526281412574   -2.01150028647372
C           2.18842781458732  -12.49015655770878   -0.89581039165110
O           2.77705758024848  -13.52551189731753   -0.71153742317950
C           1.19678664376568  -11.79065730149082   -0.08343807335321
C           0.48519152619317  -11.84201662982505    1.10804595443079
C           0.51920922892877  -12.81834791461751    2.12188615167947
C          -0.22514234381265  -12.76073598110199    3.26571765363869
C          -0.21066878911537  -13.72250150794039    4.28238780732061
S          -1.23954521652943  -13.54398426466203    5.69059144616865
C          -0.71465828579862  -15.03461312225188    6.44208575533823
C           0.24453188304507  -15.64660476203629    5.61389835938171
C           0.51283738811976  -14.91340245727678    4.42640352103602
N           1.44258419109849  -15.62224028219098    3.74637296674352
N           1.78211925949618  -16.73803614033465    4.40619190657971
C           1.08746176777120  -16.77897648425175    5.51616744457944
C          -1.25979730362477  -15.42401919707862    7.66406692358680
C          -0.93461939570914  -16.58052530248131    8.33831174525247
C          -1.51743539766625  -16.93536537146202    9.55143522082608
C          -1.23404507474659  -18.08682064626336   10.26210795663030
C          -0.32799670221801  -19.12960195575430    9.96161604170474
C          -0.30009587483200  -20.13026153806737   10.88622993572270
C          -1.18492866026263  -19.93551859542114   11.97122931524937
S          -2.05195174601641  -18.42775758686993   11.77308560425486
C          -1.38979060196184  -20.76586600167621   13.05413466979616
C          -0.74714086265689  -22.00752865123595   13.31701034274978
C          -1.14967239368236  -22.61078335518877   14.45821932977517
C          -2.14897673101138  -21.88596753393613   15.18857174000593
S          -2.53206475262352  -20.38969894230090   14.32078714023612
C          -2.73609742045093  -22.23138117910545   16.34303965454302
H          -5.86833537018987    0.48679806803645   -0.38571884148124
H          -1.73168107143112   -8.72121212549270    1.75618523628380
H          -0.65706644972525   -8.29137358513319   -1.08919883156652
H           2.96999302955275  -11.88497150491622   -2.76649651267852
H           1.19128936086217  -13.63817217223989    1.92500573467792
H          -0.88159354840132  -11.91328715608279    3.40827640854639
H           1.88387623818310  -15.42112264166250    2.86394233819505
H           1.21577495206180  -17.60039122681485    6.19057329265210
H          -1.99552218613740  -14.76089057152322    8.09969822165700
H          -0.20084420282742  -17.23962151682577    7.90227715880664
H          -2.25338914090428  -16.26354951180729    9.97301351927500
H           0.28070398614429  -19.11990523332928    9.07580952071273
H           0.33022594702331  -20.99820386288247   10.81413278645183
H          -0.00722485030686  -22.40902422248847   12.64806745081225
H          -0.77818625846583  -23.55216446720684   14.82178094235887
H          -2.47397784375346  -23.14937629625587   16.83885708548145
H          -3.47842257082167  -21.60924982057883   16.80872893849556
