88
 SCF done       -197.356661194743          0.000671096411
C           5.27541514321279    0.73813912776189    1.83467885707464
C           3.90941088428537    0.47724799286598    1.90718728327091
C           3.39967147017781   -0.86925408369338    1.82386679237894
N           2.07977664404731   -1.10676947511983    1.96021966703840
C           1.27232502194223   -0.09142793285776    2.09907090297304
C           1.77458514232215    1.26086998189214    2.12424379257496
N           3.05172853637021    1.50900987269719    2.05353148195727
C           0.85715584032617    2.33614753460706    2.25582312357011
N           0.08481298805910    3.17326221472914    2.36997166742087
C          -0.11730577893627   -0.33716656612126    2.24178876087423
N          -1.24241729370604   -0.51477499632923    2.35886109167644
C           4.25853341840434   -1.96069312890562    1.62827909026561
C           5.62347685586291   -1.69417226103576    1.54297595501025
C           6.13050962165633   -0.33947859353023    1.65886544486539
N           7.46848095883181   -0.31285834390154    1.55564355759543
S           7.99971855874571   -1.79751168944433    1.33604410331164
N           6.60830331373522   -2.57897521849824    1.33841585604804
C           3.71631732288488   -3.31230383690578    1.57627815973742
C           2.67476997926982   -3.67939230577499    0.71444270070253
C           2.14508930218148   -2.77153405306220   -0.32799745544777
O           2.62537250679542   -1.74995010791472   -0.72402762747927
S           0.65513890290043   -3.48000745590467   -1.00231779223347
C           0.83102841523793   -5.00658872732179   -0.05898448321690
O          -0.00240839698684   -5.85881001930934   -0.08223060502314
C           2.06984814676794   -4.93662184157894    0.74773886432771
C           2.52743937873802   -5.96539908164406    1.60335175656952
C           3.55988997775824   -5.57407938306115    2.47175241463930
C           4.12429945306126   -4.30395579668070    2.46535813124160
C           5.11785512116532   -4.25346733982554    3.56589823261313
O           5.78471434284839   -3.34825494296040    3.96124171986348
O           5.14126527778358   -5.49858509755716    4.13963442376324
C           4.23082012281391   -6.34497660203489    3.54127978272176
O           4.07543576058844   -7.47169266490897    3.89529471929040
C           2.00014280686588   -7.30032766242704    1.65034715304037
C           1.60515037635408   -8.01024710574585    0.57312344551051
C           1.01218578604810   -9.29575859277183    0.64250883644282
C           0.61474168889376  -10.07453848426446   -0.42122479613586
C           0.66793305444695   -9.98278856014849   -1.89025239795080
O           1.19658223997763   -9.16388353732214   -2.59989838535053
N          -0.05374837590507  -11.08324771814792   -2.33135409562382
C          -0.28335356947911  -11.37308165750352   -3.72494970791424
C          -0.59432440344386  -11.85330000195697   -1.30497542896097
O          -1.36995437790359  -12.76230510992666   -1.48022785427691
C          -0.08079503114221  -11.24632724912835   -0.06585478286822
C          -0.20529245501234  -11.41445863600368    1.30264506271488
S           0.52179878920100  -10.06489363975448    2.14002778395321
C          -0.84619705840423  -12.45289525258096    2.02656936964959
C          -1.04820002480689  -13.74143853471309    1.48221776931518
C          -1.96337039360418  -14.68951076686442    2.07116920859956
N          -2.20057647628288  -15.83037787740006    1.42650738024807
C          -1.56480218448905  -16.10509996669303    0.30617244726812
C          -0.52871495515132  -15.24348308193234   -0.16386740659902
N          -0.30596497229072  -14.09714038427217    0.42626116205532
C           0.28284398018018  -15.62124854452952   -1.26248145123736
N           0.91282925541426  -15.94742881570772   -2.16141656204199
C          -1.90362463816178  -17.29321952394545   -0.38249329880830
N          -2.18484891517691  -18.25055164668628   -0.94692876919793
C          -2.59878380008405  -14.43738058638147    3.32745598446425
C          -2.17053882700514  -13.23892040342470    3.97476848455711
C          -1.33734406098387  -12.25826589546055    3.33168981605139
N          -1.13253834219416  -11.18983279363845    4.09914051891155
S          -1.89383243332800  -11.40309458442971    5.50082493059806
N          -2.53484711777562  -12.84419611416584    5.19235430648950
C          -3.57379807127051  -15.18398274103441    4.00712065855589
C          -4.39285492847948  -16.24176273394898    3.66107903151002
C          -4.60583833380439  -16.96317083999345    2.46501935708714
C          -5.59033264235756  -17.90167902932290    2.54283253191570
C          -6.21638826897157  -17.98021550214764    3.80854212225133
S          -5.50048949168993  -16.81816637891251    4.89782198936282
C          -7.25356078771185  -18.80918369923456    4.18879675068895
C          -7.91529305722389  -19.77659038197366    3.37998134372406
C          -8.91413794074161  -20.43399817346386    4.00969948651457
C          -9.11637071718552  -20.03354963231744    5.37276264110321
S          -7.94473108824479  -18.77057348161385    5.78794243210040
C         -10.02626769612596  -20.49825249946133    6.23982945193126
H           5.64059803584700    1.74911463318240    1.90263897114739
H           1.99289925533594   -7.77086690426433    2.62527818406032
H           1.72614474041471   -7.62681798772020   -0.43141921976007
H           0.11473934348166  -10.54426182776880   -4.30742964543466
H          -1.35248997093162  -11.48481437209217   -3.90745142219073
H           0.22079080416212  -12.29993975354403   -4.00382632867754
H          -3.74671316464183  -14.79799846607446    5.00671552169304
H          -4.02362560631533  -16.76892254675499    1.58509855755232
H          -5.87810727583477  -18.53188696539120    1.72094368240808
H          -7.62494277639676  -19.94695101443622    2.35902336968959
H          -9.52804863663569  -21.19584557109384    3.56391248602546
H         -10.72150467252716  -21.26558929078167    5.94818500920792
H         -10.09239955611409  -20.12418729051548    7.24516394475724
