86
 SCF done       -180.994376823796          0.000553205949
C           0.29550782528524   -5.76002522337683   10.40286598748730
C          -0.54013964929934   -5.19442410589670    9.44532629641075
C          -0.54586933655793   -5.66593219284484    8.08127547318470
N          -1.41815318827151   -5.15697569664867    7.18998810245211
C          -2.18980490854547   -4.17265270424511    7.56353838453744
C          -2.12960006202286   -3.64615159068631    8.90473621942367
N          -1.34832468947031   -4.17395102730118    9.80483818517663
C          -2.95940344746692   -2.54991590586909    9.25585883560059
N          -3.64602468699010   -1.66646396254403    9.49945363906655
C          -3.11196861420690   -3.63066557359113    6.63343186401401
N          -3.86581030629293   -3.17375369959828    5.90201759057654
C           0.32436571142235   -6.68143078213083    7.65992922847217
C           1.18241148024054   -7.22590808070882    8.61895707642695
C           1.15152848481437   -6.77430232952166    9.99605423545102
N           2.04902450516456   -7.43161202130618   10.74503810538329
S           2.83138870563598   -8.47036414283333    9.82102804194650
N           2.11358648301433   -8.16733253819960    8.42372794020656
C           0.35317676445017   -7.09725259426280    6.26680855569198
C           0.26114296636419   -8.42359269983266    5.84834034862145
C           0.00785145947159   -9.51342741217768    6.80929802899684
O          -0.37028325852005   -9.43243483479165    7.94173693665283
S           0.27269241946323  -11.06690236119192    5.98145726507231
C           0.50182406637323  -10.27240355526113    4.38523892981574
O           0.78976030271735  -10.95487675122698    3.42660423832317
C           0.35007071424189   -8.82946582595804    4.50337112049571
C           0.36978570406591   -7.85968363699432    3.44139514871994
C           0.50071919389848   -6.52496914793955    3.89955058790765
C           0.51270530303292   -6.16283028952992    5.23577851674005
C           0.76210741590362   -4.70847425771832    5.31361483743357
O           0.93625887558984   -3.99953627790287    6.25875896817939
O           0.82215609461400   -4.24565428697806    4.02461892654119
C           0.67315596384658   -5.27457406044760    3.12181814929396
O           0.70844307945015   -5.08312416555565    1.94452997241611
C           0.25653870591877   -8.06407653128307    2.04445655567577
C          -0.09150558883922   -9.22297428672151    1.41044506916642
C          -0.18590421900394   -9.36969234762675    0.01312017747502
C          -0.26513605924616  -10.63013697155811   -0.59238913287920
O          -0.48043683652190  -10.77818748177719   -1.93899679524372
C          -0.54384106215152   -9.62177093855683   -2.66050735347400
C          -0.37186304359413   -8.34423848066582   -2.05326105117974
C          -0.44270882892985   -7.32428378387047   -2.94578589236861
S          -0.72331561238295   -7.91095695429940   -4.54039587714974
C          -0.74438909216424   -9.54632438047855   -4.00026057717629
O          -0.17848707618169   -8.20524088420481   -0.71433006682945
C          -0.04448887424658  -11.82374763835415    0.11697158027347
C          -0.08497025877074  -13.07400103838998   -0.45334002771451
C           0.22146322868738  -14.25046761165749    0.22443414308892
S           0.14039228581232  -15.78892064387727   -0.61903628632264
C           0.67778833564324  -16.73473433522846    0.75370958565354
C           0.89437874471068  -15.86737084888872    1.84262761953410
C           0.64381007913576  -14.50028794957694    1.54424276130018
N           0.91155123954567  -13.80924009072980    2.67432558447397
N           1.30292363455392  -14.62712441841415    3.65687026931916
C           1.30248863298777  -15.85458719191466    3.19527541680487
C           0.84738323026884  -18.10741924958227    0.62076257232392
C           1.32380911211640  -18.94558746461476    1.60908583217811
C           1.52340135049372  -20.30492601890113    1.40577749576826
C           2.04146427606593  -21.18405504561286    2.34149732707771
C           2.45143742650426  -20.94522032901159    3.67149971461027
C           2.94197603843020  -22.04516379565009    4.31168815732064
C           2.94923174864450  -23.21476001127762    3.51984738968906
S           2.29548861231633  -22.86741445548387    1.93366873111940
C           3.40003108477389  -24.47212423759009    3.86872560127055
C           3.95313185782459  -24.87100957227283    5.11634658219761
C           4.32542135654485  -26.17031351122267    5.16924162284931
C           4.09238877917162  -26.90098924091357    3.95765335956475
S           3.36436136205299  -25.81977015952456    2.75815049977933
C           4.36260270324841  -28.19033716764921    3.70900834001342
H           0.28376971276986   -5.40033376198488   11.41786621425248
H           0.44292498521511   -7.19441792072603    1.43138306038469
H          -0.32654021386123  -10.09482980502830    1.98740426134524
H          -0.34700284911968   -6.27631869106610   -2.75373115751782
H          -0.89991340751059  -10.34921370430508   -4.68993287338895
H           0.22342799270460  -11.74084096062895    1.15334553634204
H          -0.35345717788219  -13.16508913295913   -1.49638389159865
H           0.86741900673078  -12.81555732611413    2.87249150132857
H           1.58517889483576  -16.66401603782974    3.83633030406468
H           0.60545492062131  -18.53522179792582   -0.34335406838969
H           1.56896182715961  -18.51954945214032    2.56888856314166
H           1.27313939114192  -20.71223336556911    0.43500421082291
H           2.37757278649775  -19.97440898240825    4.12672394429080
H           3.29941076417409  -22.04120385128198    5.32560607639195
H           4.05615065947801  -24.17746259296934    5.93164248518290
H           4.76318940717064  -26.65145749464658    6.02550013645333
H           4.80772957777605  -28.81348643990343    4.46440193954667
H           4.14708507711675  -28.63990988050890    2.75711909264983
