91
 SCF done       -200.765198884951          0.000830749098
C           0.56314822826485    0.98093545394956   -1.29025017562052
C          -0.33794910587250    0.39516457893609   -0.40478200960395
C          -0.34994873194521   -1.02966813159157   -0.18136941955435
N          -1.18210873808667   -1.56757662110977    0.73256717173881
C          -2.02727603690590   -0.78567814718695    1.34576700213675
C          -2.06483300182943    0.63041903236085    1.07170740815201
N          -1.22167947486009    1.18151350158683    0.24505525635091
C          -3.02280548165906    1.43910725497225    1.73720437177766
N          -3.80963639853372    2.05675038443683    2.29433267516288
C          -2.91064774070316   -1.34380029613424    2.30504062215420
N          -3.63923238264785   -1.76807404457081    3.07965781094134
C           0.51290620368702   -1.88168302013649   -0.88557046275577
C           1.40143446997985   -1.29316546524579   -1.78420822657311
C           1.43375716554632    0.14495387611674   -1.97327626378067
N           2.36575582816944    0.49498688805634   -2.87338405058414
S           3.08879856703392   -0.82020184978320   -3.40603051725025
N           2.28775051568504   -1.91876102131860   -2.56997555603263
C           0.49604954935117   -3.31757558700180   -0.63777304799224
C          -0.67241308756493   -4.08776818876312   -0.69394832749925
C          -1.96759315064943   -3.53476904773386   -1.14495287533002
O          -2.17130579507305   -2.49627687646051   -1.70399589847402
S          -3.24924201236092   -4.72369784435654   -0.79640979664477
C          -2.07575446727371   -6.00208692656927   -0.30679356466237
O          -2.43996434392308   -7.08960081939589    0.01913744732194
C          -0.70544597460507   -5.44629804384623   -0.36273351694598
C           0.46375152922037   -6.15179872226157   -0.00879564662727
C           1.62286431886319   -5.36561764650633    0.04765632874728
C           1.64166341208412   -4.00514804307612   -0.24338350545552
C           3.01616947952312   -3.51562070361131    0.01222246201587
O           3.46777212066701   -2.41325838066274   -0.03922118570943
O           3.76531881893873   -4.60532146491108    0.38379697076570
C           2.99990861073794   -5.74882635018214    0.42810450947446
O           3.44942131397424   -6.81094098858385    0.73157408434493
C           0.53641873770014   -7.55230889010668    0.33310350457460
C          -0.13394050826139   -8.52935506788075   -0.29252972210685
C          -0.06550208292119   -9.92945953351304    0.05169018583766
C          -0.10145347135177  -10.47373262060472    1.35102031605841
C          -0.39077423721939   -9.65159594221112    2.55171127841244
O          -0.45305401646058   -8.46407337663812    2.65512313787196
S          -0.67801448221120  -10.73305146473625    3.94453287004603
C          -0.34131281713791  -12.21445351049636    2.98717498656455
O          -0.45102644936521  -13.30155044209583    3.47964456227834
C          -0.00956040764163  -11.84561099827301    1.60260520810349
C           0.22074066058887  -12.80276149183453    0.56460185530640
C           0.09382663837767  -12.24876154039553   -0.73330651994121
C          -0.04569960450873  -10.89219876060379   -0.96775367581424
C          -0.10914473877300  -10.69632956496564   -2.43516730110865
O          -0.20827122458800   -9.69289403349426   -3.07250920773697
O          -0.02378440470725  -11.93671543533580   -3.01012959327721
C           0.11121965839660  -12.91854007373302   -2.04953356971843
O           0.21526100135618  -14.07208724770962   -2.33810275974857
C           0.53063534704897  -14.17562763487568    0.68996558289493
C           1.07501597801685  -14.81793608679687    1.76820469045713
C           1.35978142524585  -16.18347935074418    1.79329065560916
S           1.10416563189414  -17.27311853272342    0.44145515085455
C           1.67390995156658  -18.68875260797948    1.30126312547595
C           2.04542408044805  -18.32011104018779    2.60891319469588
C           1.86580333327706  -16.93592952735419    2.85998648103870
N           2.24324978689546  -16.72342209065992    4.13798445559647
N           2.64691870780376  -17.86258217329008    4.71886797600118
C           2.54359824558424  -18.82449342001103    3.83426744248857
C           1.69089981899896  -19.92207738910516    0.65429248976956
C           2.10342603712989  -21.10634993127260    1.22554509323420
C           2.10430294033323  -22.31305542929310    0.53283794131922
C           2.50419000552413  -23.53001078559872    1.05320331733880
C           2.97850275590795  -23.84405552746274    2.34768729406104
C           3.28914501619958  -25.15893811495249    2.52530520646679
C           3.07833597033132  -25.95908296401490    1.37908821617854
S           2.46710633961169  -24.97532198883088    0.06635032392384
C           3.30015905446876  -27.31375387308841    1.23999885275625
C           3.78877212633361  -28.21031756046963    2.23128204612419
C           3.90887078954985  -29.48973086762373    1.81147667185150
C           3.52199500344788  -29.70207775449191    0.44648336568380
S           2.99742649675171  -28.16232363224372   -0.25538418545869
C           3.53372007177987  -30.85161095719264   -0.24234529597056
H           0.56190727865999    2.04729399004761   -1.44178840510111
H           1.25689511580508   -7.78978489234233    1.10328386584227
H          -0.71266888702481   -8.31388855301309   -1.18003000383177
H           0.38401531421102  -14.76059551060478   -0.20901590446294
H           1.33066914920793  -14.27558485788519    2.66559555972664
H           2.21745419927927  -15.86976674274290    4.67117174181315
H           2.82264885284721  -19.82231250524861    4.10396376556045
H           1.35058190839451  -19.93436273064302   -0.37259945332559
H           2.43837235018063  -21.09315873142969    2.25076060645211
H           1.76800570924383  -22.30328783599162   -0.49547798398441
H           3.07870247251947  -23.09878808281765    3.11560085515973
H           3.66270912111327  -25.56974439850742    3.44591142821773
H           4.03323317952905  -27.87192413380067    3.22223236621645
H           4.25988225613363  -30.30663345288871    2.41629892748834
H           3.86091835496119  -31.76587695252552    0.22064593596678
H           3.22156625229984  -30.89882211409922   -1.26954902370554
