68
 SCF done       -134.330466362599          0.000566180852
C          -5.27418783238288    4.70983689964082   -9.12420917144462
S          -6.17103103180819    5.43984542874492   -7.83793431952083
C          -6.14326540857741    3.96950376063740   -6.96702307042037
C          -5.46784145438130    2.97141557834368   -7.65520493896795
C          -4.96857835787588    3.39920540302582   -8.89521731685248
C          -5.50351556798052    1.75917634055891   -6.81797861346048
O          -5.04238623610683    0.66648195929635   -7.03288683830224
C          -6.27053677825879    2.18148221047870   -5.57534931767401
C          -6.63160876795425    3.49140419458626   -5.70560982104004
C          -6.49541251502360    1.25897652257367   -4.52156599646566
C          -7.13776194972790    1.54223154059704   -3.36394886481691
C          -7.34195731661299    0.60921535374593   -2.31349393372715
C          -7.93773088509394    0.84700950094983   -1.08203260223030
C          -8.39402220911986    2.20064673370850   -0.69298324913645
O          -8.88608046812014    2.98938983830307   -1.45524996433385
O          -8.17922113676199    2.54609372891428    0.59089155816198
C          -7.95890649052128   -0.31493443232549   -0.24986636102728
C          -7.35669330662555   -1.38528505809809   -0.85624394961451
S          -6.77306391813086   -1.03388909510850   -2.42298724826633
C          -8.59097419860193   -0.41905556755665    1.05020629128135
C          -9.72323094635810    0.19350751095270    1.49024706203850
C         -10.06894928049723   -0.14797909949094    2.82588068425575
C          -9.14612764489648   -1.06311369020956    3.39555473666184
S          -7.89300280708874   -1.48515829559356    2.25995214089221
C          -9.25637707299057   -1.51884722560650    4.69014930219563
C         -10.31913380549066   -1.04404823786391    5.45663239480276
C         -11.24927217383686   -0.13776037923247    4.88340049713425
C         -11.14233777653311    0.31175689585716    3.58526466065968
S         -12.47394784432106    0.31265457558226    6.03382305945289
C         -11.72240196447698   -0.68743537849008    7.27354392341578
C         -10.61993581371076   -1.33976501117672    6.81122789287494
C         -12.31931190489999   -0.72410028655277    8.57684368030875
C         -11.74588926277755   -0.96102370860211    9.80748818332783
C         -10.29124236710529   -1.17427038280386   10.03295772793465
O          -9.63190106098974   -2.02315924225694    9.50303067049406
O          -9.72918045260716   -0.30714387098128   10.89545961847046
C         -12.68704490242535   -0.86096249107608   10.88344589447511
C         -13.93825521568553   -0.52967882630458   10.43456568478507
S         -14.00922783309206   -0.33823228075531    8.73859511401896
C         -12.38511031237948   -1.13371946279156   12.26837060667274
S         -13.37145696062295   -0.40879704908329   13.52744619490277
C         -12.45453575420394   -1.20375365005330   14.72856849005804
C         -11.45260281571380   -1.99192723480576   14.18480996955667
C         -11.40934781205769   -1.95654552130443   12.78818046904473
C         -10.73966083270017   -2.62982654820514   15.31303309429385
O          -9.81231388504753   -3.39683599732305   15.29055447817617
C         -11.44551172941026   -2.10527774195129   16.55072386062343
C         -12.44855847895068   -1.27392582609777   16.16546955140258
C         -11.00888908505920   -2.51234905142399   17.85576663582318
C         -11.54541728306432   -2.12140393953956   19.01198306113200
H          -5.02627888425584    5.30568337215196   -9.98005757961026
H          -4.41674086610047    2.78272454067559   -9.58038689609241
H          -7.18720292648066    4.08255770503814   -5.00134315745277
H          -6.10089264374569    0.26333239500958   -4.69050883229204
H          -7.54409089269885    2.52833752964407   -3.19230560575501
H          -7.79369655985037    1.82888392277117    1.11298760539165
H          -7.25145196740634   -2.37362533375009   -0.45393378688069
H         -10.31016596474983    0.86403612253544    0.88750106676477
H          -8.54361924312782   -2.20976978955017    5.11055769365931
H         -11.85477927474408    1.00471413135918    3.16730883710934
H         -10.03655251411074   -2.01441601641870    7.40953482883591
H         -10.36479155027152    0.31809355733148   11.26834457704989
H         -14.82434076583968   -0.40914759577234   11.02568906695793
H         -10.71618997158293   -2.51736831588904   12.18789743988179
H         -13.13510637619036   -0.74424728757013   16.79976033053462
H         -10.16806258594116   -3.19454301616507   17.84654446594174
H         -12.38145374021968   -1.44404451980682   19.05421715492076
H         -11.16113236382449   -2.46953079505574   19.95451117886530
