76
 SCF done       -164.926846490342          0.000767277375
C           2.37926864259777    7.42522091124078   -0.91346729986752
S           1.95810642669025    5.82090127311763   -0.42533312971993
C           0.29712569704846    6.20418882560447   -0.55357355746176
C           0.09718618004186    7.51768728935473   -0.95670275661982
C           1.29557085783706    8.21773883878586   -1.16279046107568
C          -1.35807028909200    7.73658203635363   -1.02956966292521
O          -1.96938407258597    8.73135110472060   -1.32900580189123
C          -1.96305321638212    6.40155346015318   -0.62473416490871
C          -0.95018960780665    5.52711165262869   -0.35218415591423
C          -3.37156590125222    6.24301129457447   -0.58509992300805
C          -4.01984623614876    5.11587709769192   -0.20622767498276
C          -5.43770410093860    4.93217047236611   -0.17544826116292
C          -6.39130981151871    5.88376975658692   -0.53488676712700
C          -7.75830244840749    5.62508679872713   -0.54463739433221
C          -8.29358086856022    4.39243946264293   -0.18819769047154
C          -7.36352259696558    3.42744224828732    0.24911074168668
C          -5.96355724080813    3.68588886507533    0.24032962989397
N          -5.35603867210070    2.56637584999311    0.65982178445109
N          -6.32931912495894    1.73275019905439    0.88380024546633
C          -6.09117313206981    0.41203217029420    1.39046329570991
C          -6.31683446736487    0.37383603865705    2.89869946279154
N          -7.53985118870333    2.16507607586136    0.66285117481905
C          -9.69244502712190    4.06032220189425   -0.27149568648331
S         -10.37339605155510    2.99483600593324    0.90733026821995
C         -11.95142137060911    3.21533497891366    0.23227287647658
C         -13.12756981031692    2.51274338022881    0.81053315004905
F         -13.30784233496270    2.78284504185127    2.11491919146382
F         -14.26460273124961    2.85063492461982    0.18785904992754
F         -13.02682170430908    1.17322032159562    0.72168590742589
C         -11.94947923688107    4.04357808259215   -0.84703504341489
C         -10.65174931202222    4.51389616183753   -1.17206629176285
C         -10.40238619635641    5.31099442993854   -2.34394210085040
S         -11.52402116674733    6.50702901732343   -2.84926662148900
C         -10.55924771277932    6.99734273774812   -4.21379183328234
C          -9.36451267105380    6.24810727665811   -4.25326413810828
C          -9.30767057651385    5.26042981783200   -3.21760815370894
C          -8.23313039934667    4.35198671463172   -3.16534680248997
C          -7.17481873246194    4.50899445904863   -4.01304671812928
C          -5.97817556338143    3.60657760111643   -3.90941886869161
F          -6.12625739193348    2.66899417170701   -2.95841483288219
F          -5.71714319028803    2.94844892424864   -5.04808206599911
F          -4.86313207116253    4.28561442926377   -3.58913770276759
C          -7.17048389095817    5.55493574820684   -4.97735765057928
C          -6.05234027757319    5.73814971659757   -5.82599568480284
N          -5.15953714112621    5.90763638405246   -6.52269622159912
C          -8.26168587716550    6.38654619593762   -5.11161099818192
C         -11.10927675199690    8.00072168716506   -5.03197994885448
C         -10.66366508530368    8.46521714093743   -6.23630364641442
C         -11.36338193582031    9.47625210748865   -6.92434745220458
C         -12.50733865655464   10.17879939342616   -6.60705564032303
C         -12.76751713754296   11.09452098052676   -7.68430610560145
C         -11.70832915548918   10.89675499104270   -8.66922568358182
O         -11.48154129916136   11.40609118708644   -9.72428969789974
O         -10.89468513469272    9.89940948354279   -8.13755630197733
C         -13.89225899938576   11.77648951648667   -7.35854336889890
O         -14.37109799767619   11.37261898400864   -6.16448200757834
C         -13.55397604911634   10.36893196170269   -5.63416886769736
O         -13.78260761539640    9.84621464004722   -4.57413598014797
H           3.41666064773172    7.68505458289023   -0.98680901362136
H           1.36199388201855    9.24315582705676   -1.47658845227563
H          -1.04418037938320    4.50247492326474   -0.04343355135842
H          -3.92405547613980    7.12216690884848   -0.88962998393797
H          -3.44995728596539    4.24977323609609    0.09938646456046
H          -6.06363753594028    6.86728940155634   -0.83205537446756
H          -8.43128354785437    6.41876242896705   -0.83321470214995
H          -5.06059771413852    0.15257029307600    1.14410269066816
H          -6.78196604511362   -0.26789262183578    0.88780520281870
H          -5.63119469467484    1.05168390429071    3.40132052608635
H          -6.14908064227770   -0.63262976880664    3.27036301859452
H          -7.33741799095998    0.66832252815057    3.13011530254805
H         -12.82946742569690    4.29044851542925   -1.41389004559134
H          -8.25161161191095    3.53801611875775   -2.46082838023030
H          -8.23539181313491    7.15884900596179   -5.86125411966205
H         -12.02828666209386    8.43429303815848   -4.65284718156482
H          -9.78927731939451    8.07976088441696   -6.73349163442741
H         -14.43970695738987   12.54838827509116   -7.86544672630908
