78
 SCF done       -144.776544913898          0.000473738969
C         -10.75829689056910   -7.01938635292272    3.04897337794645
S         -11.84482557447077   -6.30829251033953    1.89996871955684
C         -10.68052750271429   -5.11139556869925    1.52257463558724
C          -9.51274811342770   -5.27180702245106    2.26111545532572
C          -9.56386169931005   -6.36790616847270    3.13796790017407
C          -8.59014625398881   -4.19573685381466    1.87869158274448
O          -7.48653004216853   -3.96097993117910    2.31484779608642
C          -9.34797411091617   -3.41067157059121    0.82044483461620
C         -10.58448200381290   -3.98761885240876    0.65215922156628
C          -8.86286694376682   -2.27651657416567    0.13752718412133
C          -7.59735023715642   -1.78665853777531    0.24834774931563
C          -7.06147204053868   -0.66191934120860   -0.43919490502435
C          -7.74434643740603    0.43328831025566   -0.93939840888864
O          -7.15225184542799    1.31700531825570   -1.82979203477532
C          -5.82082761454156    1.14670955101905   -2.04778573583843
C          -5.08526200472384    0.10977765388506   -1.40436825657150
C          -3.76580370789457    0.12766421987028   -1.71660728224034
S          -3.40119985918737    1.41306688922779   -2.80684909113259
C          -5.04622001301318    1.93016094425807   -2.83796065114324
O          -5.69277563102745   -0.79939907811977   -0.59764793643062
C          -9.05622811042565    0.86709809622705   -0.61350722541890
C          -9.75629707698056    0.56720740982235    0.51925897628366
C         -11.03621245264420    1.06210275047446    0.81255216720674
S         -11.84673181847024    2.04410785835434   -0.37617338010556
C         -13.25312873231704    2.26131596781342    0.60509281065310
C         -13.09671085588639    1.59548802795242    1.83844798051748
C         -11.85342598030062    0.89298974182916    1.95519997544577
C         -11.59661762693929    0.13627320573813    3.12856776696222
C         -10.33806072911342   -0.64347770786992    3.35305356177463
C         -12.56299112254447    0.11074470311013    4.10698301074147
C         -13.78074483057860    0.79044418377079    3.98369861523630
C         -14.05517522237234    1.52461640875026    2.86549819701519
C         -14.32807430384956    3.09913641606916    0.19222607865383
C         -14.69598743959065    3.34531972947342   -1.11812307269232
O         -15.66147785991987    4.27837430260841   -1.45161595110148
C         -16.29958751441136    4.87496643135421   -0.41009089197750
C         -15.97570394909846    4.56673554474047    0.94125098146083
C         -16.73343139084466    5.24856966794935    1.83552971806990
S         -17.85585921443742    6.28525777782469    1.03662001753558
C         -17.29706065359185    5.78747732691622   -0.51693035377238
O         -14.98927845147777    3.68481357641802    1.26018030858905
C         -14.19871874983605    2.62540321389989   -2.23440491269714
C         -14.50806596988090    2.92407509147079   -3.52577227028220
C         -14.06293467419669    2.17295605850616   -4.63609808422218
S         -14.58690192621659    2.62774757545345   -6.25121987049619
C         -13.70344194929434    1.33331360240031   -6.93430910408233
C         -13.03412064619262    0.59246156062048   -5.96130405227749
C         -13.23029565217831    1.05642137627396   -4.67048771947693
C         -12.31258300210020   -0.49568724984511   -6.66297445767724
O         -11.61063018837828   -1.35820052335836   -6.19439608928734
C         -12.64903823658638   -0.29326883356624   -8.11876098577930
C         -13.46700578822127    0.79390000220752   -8.23594457698838
C         -12.12678758720977   -1.18139113790330   -9.11571322826395
C         -12.35991018933343   -1.10679661096227  -10.42699596251396
H         -11.08109698184544   -7.88727382800864    3.58872139012794
H          -8.76679995837151   -6.66400276932648    3.79504574778793
H         -11.34982584196248   -3.65951193838627   -0.02706089078520
H          -9.56618694946983   -1.78845174628517   -0.52658784915647
H          -6.86568110609389   -2.35353136064023    0.80791578454603
H          -2.99759442412925   -0.53313144939132   -1.37430594554409
H          -5.34324823094619    2.77065749685439   -3.42902013858812
H          -9.45218028871199    1.60634706078107   -1.29893863949195
H          -9.29183382208284   -0.07883613557276    1.24084792088907
H          -9.46471833754735    0.00677549701893    3.33604927819529
H         -10.21561249354374   -1.41822855378008    2.59600177770030
H         -10.37438612188306   -1.13004766871467    4.32520292131131
H         -12.38124737256685   -0.46076146627946    5.00555176596122
H         -14.50520410584905    0.72450720782587    4.78118255744849
H         -14.99277207558024    2.04256823423909    2.76203638823982
H         -16.69341280535595    5.20600421904191    2.90364999770179
H         -17.72942633745499    6.19224414245170   -1.40758956031915
H         -13.58035370657005    1.76985694673008   -2.02631440696405
H         -15.13002459916302    3.78306177484466   -3.73270853964542
H         -12.79197113573254    0.61847229999619   -3.79329759110931
H         -13.87896046969942    1.19464619525615   -9.14383648515738
H         -11.49407570373192   -1.96559688525655   -8.71917607874331
H         -12.98494138905955   -0.34086752176857  -10.85346477973720
H         -11.93085732098074   -1.81439982046097  -11.11428675692299
