90
 SCF done       -152.384850512824          0.000918142747
C           1.77665827578920   -4.50534051305238   -1.94442019798177
S           1.49367280631715   -2.79944485014871   -2.05623871385530
C          -0.18928805158737   -3.05506177772605   -1.89018692715018
C          -0.49903749133453   -4.40255417410682   -1.75574461465039
C           0.63372050437706   -5.23250160899900   -1.78739731592960
C          -1.95856227225444   -4.50472982580846   -1.61883329214483
O          -2.65052591055152   -5.48355000560047   -1.47922021902159
C          -2.44911111236663   -3.06575169485065   -1.69071832140100
C          -1.36702172411471   -2.24336167285921   -1.85171891398575
C          -3.83013008754743   -2.78328209008432   -1.59258872574583
C          -4.37648596765426   -1.53805781737282   -1.64534359977988
C          -5.75465472324804   -1.24604545270046   -1.54973503654246
S          -6.26768000238971    0.43549947011784   -1.65259222256921
C          -7.90190007339935   -0.02197667591360   -1.47150827617528
C          -8.04511296580443   -1.40575073477702   -1.33727065806747
C          -6.84365437196101   -2.09729718728026   -1.38025264580280
C          -9.49089081489127   -1.67695684769319   -1.18741907809655
O         -10.05568665281776   -2.73248513529524   -1.04264705157475
C         -10.14215016742546   -0.31137535128803   -1.25444772207251
C          -9.16347822514673    0.63412132093305   -1.42124753315071
C         -11.55018435492196   -0.17499784215287   -1.15261797516502
C         -12.21502375206070    1.00453298717442   -1.19307141947448
C         -13.62957331504854    1.16290069431108   -1.09808360407061
C         -14.25980712377522    2.34901476043919   -1.07946109305579
C         -15.73939097420595    2.19930130091482   -0.93688563159727
C         -15.98545612564785    0.69871945712226   -1.22099319995782
C         -14.61567657971108    0.03229876765435   -0.97946034252231
C         -17.13256066112776    0.27353605030915   -0.28973466182479
C         -17.02612532259674    1.22362083580356    0.92018793185526
C         -16.35233928141716    0.37052350690770    1.96521566164705
C         -16.34235975434229   -0.90601992597126    1.62068353753496
C         -17.00662686677682   -1.14091783769248    0.29538435505019
C         -16.24310180085655    2.42232167325587    0.47141333133657
C         -16.04579256145628    3.50026197769573    1.24643045826874
C         -15.30338844313366    4.66489729115250    0.88477493370366
C         -14.95368193949182    5.62606271589891    1.76952118371106
C         -14.11701405859736    6.73522096863637    1.47068333265334
S         -13.67488082714918    7.84317044547737    2.76102259533979
C         -12.65029952383948    8.71555982626635    1.70390662978324
C         -12.66555117551226    8.18187458692049    0.41446279376558
C         -13.49112487350051    7.07275494843138    0.27818778836527
C         -11.72314174786115    8.97519891293162   -0.39688359453909
O         -11.43515328011063    8.85553059010083   -1.56269386705910
C         -11.16010790057540    9.99759397171796    0.56868671557814
C         -11.74993628653965    9.81217565091168    1.79624474323207
C         -10.15989988947636   10.89582467186332    0.14145751602265
C          -9.54039304927140   11.81851361075952    0.92912011254448
C          -8.49300540083067   12.66598350817543    0.50775133313462
S          -7.79337110926183   13.79457584856885    1.66242949795463
C          -6.68025566184757   14.34844198817427    0.49168049787452
C          -6.84389961251579   13.69606295871102   -0.72992630374588
C          -7.85905652899629   12.75233200921834   -0.73001809989893
C          -5.82386638893395   14.24657714015831   -1.65450411411436
O          -5.61473379648408   13.95897542049112   -2.80656196595147
C          -5.07847637961430   15.26838408157827   -0.82908483607677
C          -5.61420075922372   15.29760675097860    0.42578889605024
C          -3.99747806482507   16.01572424667097   -1.40199489226343
C          -3.26858153889145   16.93919601823517   -0.77296872678234
H           2.78585236525267   -4.86161282327693   -2.00320953862496
H           0.61113271287821   -6.30325165946170   -1.70001445832743
H          -1.37038020889986   -1.17257457274761   -1.93727548890568
H          -4.46483360990766   -3.65011664105037   -1.46760914213227
H          -3.72302540140351   -0.68529931970544   -1.77218521577467
H          -6.74937867953370   -3.16382596666845   -1.29415467365199
H          -9.29919880814856    1.69654785081482   -1.50519023314906
H         -12.09194227029619   -1.10353569267118   -1.03073087514345
H         -11.65158639832730    1.92193050768398   -1.30387373721320
H         -13.76733143052266    3.30312769410380   -1.13808677805389
H         -16.28605587077333    2.85686441217514   -1.62207152973628
H         -16.26726392191264    0.54728905914903   -2.26575558117348
H         -14.41553090711727   -0.75864154081563   -1.70205736709156
H         -14.54620367693986   -0.39140130820974    0.02392794681652
H         -18.08009819109814    0.40420533551243   -0.81603643551487
H         -18.00509059146330    1.54006669676419    1.30049793556315
H         -15.95835045239023    0.79984080989300    2.86928213381598
H         -15.94004517422553   -1.71806037049384    2.20222023399491
H         -17.99431761878465   -1.58367235400829    0.45257454773845
H         -16.44407035140111   -1.81614859757109   -0.34875642994388
H         -16.45569762849319    3.48989847498791    2.24954946073921
H         -14.99660997290032    4.75752153807413   -0.14463426812917
H         -15.27684766527377    5.54011787715522    2.79905764374396
H         -13.62545607618546    6.52808742436543   -0.63777299622939
H         -11.56689508463674   10.37784173266572    2.69127503516544
H          -9.87398832604799   10.79418212003281   -0.89710783732388
H          -9.84417120474689   11.91711034038215    1.96281848907051
H          -8.13101329830387   12.14852528133211   -1.57547001932431
H          -5.30338467533195   15.91907673396176    1.24536039399887
H          -3.79214771003323   15.77178487823342   -2.43691028880305
H          -3.44526658459172   17.20341706141735    0.25591883693645
H          -2.46864754871651   17.45778307584832   -1.27163821507170
