73
 SCF done       -133.062721339305          0.000653793494
C          -1.09636324341377   -5.54591936927087   -0.48845834473316
S          -1.02704019502013   -4.66887491432905    1.00159031537857
C          -2.51942086875771   -3.91531278914445    0.64157061392116
C          -3.03221342426297   -4.33584669559599   -0.57939030893822
C          -2.21183215427557   -5.27304670397215   -1.22615168368603
C          -4.30668630305321   -3.63092078628654   -0.78653288759544
O          -5.07993816068580   -3.69736124289649   -1.71004564323746
C          -4.46364281591712   -2.76213754381654    0.45107097449804
C          -3.38383618595539   -2.96204435709786    1.26758671822266
C          -5.59728935089187   -1.93164773635472    0.59525621001479
C          -5.84633364232688   -1.10435901798307    1.64449372146195
C          -6.99293952554389   -0.28825675698362    1.75374528956237
S          -8.25259740754886   -0.25009974806834    0.54789665147933
C          -9.17202232988887    0.92625888910418    1.44832093420831
C          -8.51466773884130    1.26636312289868    2.63075935367730
C          -7.28842770042220    0.58089028345747    2.80223523216571
C          -6.44449095667949    0.74700244705401    3.91149687578284
N          -5.74315338704631    0.86950822795371    4.81129239134609
C          -9.02977772959362    2.19354245951101    3.54923304160897
N          -9.46266822463631    2.95375552348158    4.29163174344531
C         -10.41319696010989    1.43627444705148    1.01249316651821
C         -11.02541314810004    1.05511265568607   -0.14156056807419
C         -12.27024741241939    1.53083588834359   -0.59976661819405
S         -12.92635478602093    0.88324516232480   -2.10321903049799
C         -14.32069634010918    1.85726310471848   -1.94734912525943
C         -14.27557691011910    2.65124913603623   -0.79062629585302
C         -13.12954459039783    2.46990322101483   -0.03483865792958
C         -15.51762974323883    3.44042320907382   -0.75982603818587
O         -15.88660732305005    4.25716672954847    0.04893484201703
C         -16.27397013083258    3.00535239684459   -1.99861701689640
C         -15.51713307372120    2.06841371887414   -2.67204264545535
C         -17.53773296477682    3.55202139456713   -2.27066114407007
C         -18.34087036853065    3.20014778110597   -3.32061864075626
C         -19.61239409133200    3.71942537753315   -3.59999340272103
S         -20.49839207938261    3.02583655381327   -4.95343356824752
C         -21.88208493709284    4.04599944563489   -4.70800261975039
C         -21.63970203604279    4.88133623154529   -3.63112321819788
C         -20.38342634096868    4.71916084084625   -2.99653553788525
C         -20.23787530600278    5.62727799597553   -1.91337230444994
C         -21.32132603183767    6.42371069912703   -1.73692869133596
C         -21.51514782692667    7.47811481661639   -0.71094423842099
S         -22.60347740044590    6.11419511708819   -2.89606817955890
C         -23.06686821050204    4.02196055830493   -5.48302422814524
O         -24.03155678607653    4.91432657222136   -5.14030231779024
C         -25.06318081978684    4.72830322426431   -5.97863887002881
C         -24.80295394830294    3.73453365986744   -6.86494790392208
C         -23.49692798004327    3.24909920202569   -6.56526663082664
C         -22.77686069770455    2.19899301682261   -7.21615078582857
C         -23.24482232037407    1.46793389192777   -8.24542567667124
C         -22.49091135460993    0.41652328782432   -8.86851140826020
C         -22.94734277781906   -0.31579532162746   -9.88419120694419
H          -0.29525530588547   -6.21714371767530   -0.72659979608306
H          -2.42614873127352   -5.72175459690559   -2.17854448956084
H          -3.19464172335721   -2.49775145283849    2.21771114691943
H          -6.30918094261080   -1.98123941317663   -0.22094282518251
H          -5.14498054055358   -1.03817901832085    2.46601883755689
H         -10.87529619600805    2.16419208202502    1.66502071603677
H         -10.53402704324057    0.32041218933197   -0.76802217387513
H         -12.91712615553309    2.98631615524441    0.88303382603572
H         -15.77470258534203    1.57251409501012   -3.58927633895691
H         -17.87285663680354    4.29047810837307   -1.55801899280328
H         -17.99139150987653    2.43825587823334   -4.00502463850073
H         -19.36753272050008    5.69733268025039   -1.28826527777617
H         -21.67995067506589    8.44539854676189   -1.18487417132297
H         -20.64080992039838    7.54398287730000   -0.06857207586172
H         -22.38877568195419    7.25755196332899   -0.09846171578088
H         -25.91785635214582    5.36126761282213   -5.84293964467155
H         -25.45438086173596    3.38590420808611   -7.63855080434666
H         -21.78604350890462    1.99129747649172   -6.83496035363923
H         -24.23223436035373    1.65495135255750   -8.64374054528861
H         -21.50178550802085    0.23333670704718   -8.46861547983799
H         -23.92759748695732   -0.15200694436752  -10.30096746333644
H         -22.36026951205685   -1.09797409626215  -10.33277037669875
