96
 SCF done       -173.335768095775          0.000272488460
C          -0.08471290377784    9.51534263479635   -9.44929161068952
S           0.33193225816697   10.93151155961892   -8.53760878845901
C          -1.10927129404919   10.78529741231693   -7.62808625145832
C          -1.86363403266232    9.68847953501247   -8.02381915646943
C          -1.27110596250635    8.96204142851617   -9.07115760129940
C          -3.07074344727433    9.65121281959975   -7.18948363342220
O          -3.98114012429971    8.85673386087899   -7.22495722459893
C          -2.92509446739903   10.85170773411994   -6.26266738391591
C          -1.75013439436999   11.49063584321118   -6.56404447662783
C          -3.84872567185510   11.23143399030502   -5.26482201391987
C          -4.99817392418384   10.55663587728792   -4.97716144252098
C          -5.92548988821900   10.91379443928921   -3.98240536089608
S          -7.36706899690983    9.94504878580599   -3.74600265807650
C          -7.99101605471719   10.93298735680252   -2.45278625042980
C          -7.09667682190914   11.97055115337741   -2.19500640649255
C          -5.95629501092615   11.95058926776528   -3.05335579572913
N          -5.16678196530842   12.97704248367968   -2.65181833541723
N          -5.69744626851085   13.61936582258126   -1.59881887642773
C          -6.83497270544736   13.04774016995242   -1.30373096715073
C          -9.21299686918482   10.56850824345811   -1.82355609756635
S          -9.58611336921227    8.88139932434117   -1.61812131627996
C         -11.08348986847358    9.24871364332619   -0.80908527531642
C         -11.28819998558491   10.61932233034728   -0.75823259288781
C         -10.23636772492140   11.35842031331014   -1.32887835712048
C         -10.29983428534402   12.84521742622405   -1.50667336614853
C         -11.29134661440980   13.48662010141487   -0.53447286175401
C         -10.69834949336465   13.55246567664679    0.86758971090479
F         -10.23287151051543   12.39239360481468    1.34480636799340
F          -9.66028663525823   14.40840699229188    0.90814412198772
F         -11.58890278751355   14.00018908928040    1.76961470533608
C         -12.62602650426026   12.74102910774779   -0.57202356197786
C         -12.48916124199415   11.27778701660611   -0.15150163993720
C         -11.83868031673629    8.13920082397845   -0.33801815161446
C         -12.89874451209555    8.14274713145954    0.50088234319181
C         -13.56714065452283    6.96109938243115    0.92834555434485
S         -13.05477618563929    5.37825328835526    0.40818254711706
C         -14.29145058732489    4.61651249639033    1.36343311974639
C         -15.05328639594144    5.54456086017156    2.03539157873713
C         -14.64278668843507    6.87238621952635    1.79094808514232
C         -15.26878621954379    8.04539507753379    2.48167490997576
C         -16.55032809453110    7.65098362993047    3.20916669901110
C         -16.36317676118939    6.34970562890905    3.98904604776568
O         -17.51745373415437    6.17571285823767    4.78281111445924
C         -17.45936424726970    5.10754739145328    5.69483909141960
C         -16.15437736166040    5.20517389871464    2.98828673967384
C         -14.34094110909067    3.17832102427993    1.45718396546410
S         -12.94475757557758    2.31553982158712    2.02703923386245
C         -13.79029606602374    0.79567247151512    1.96464882799925
C         -15.07125124700855    0.96564211745434    1.49156392803255
C         -15.37463403025956    2.31609163054517    1.19240147119826
C         -16.65605445648810    2.72875901371060    0.53379470514512
C         -17.75974406708348    1.69436513996464    0.76080778937864
C         -18.30327692658860    1.80290918340231    2.17999355720236
F         -17.37650041438746    1.81856971968550    3.14718660953323
F         -19.00689696654059    2.94055371630431    2.33431524871064
F         -19.14370007063098    0.79931450790442    2.48188622434137
C         -17.24542865318980    0.29163531099773    0.43030908943600
C         -16.08066351749164   -0.12783250464116    1.32614599144801
C         -13.05752609808975   -0.37259563344712    2.38114655019520
C         -13.54623102678294   -1.56065432220733    2.72785719675061
H           0.58825929177921    9.18404730151214  -10.21481233952781
H          -1.69303336743245    8.08181766770199   -9.52059577578724
H          -1.36223388248846   12.37203029763924   -6.08663716857670
H          -3.59335706043900   12.12404288163981   -4.70597791022862
H          -5.23342516977804    9.67136512874878   -5.54990335909484
H          -4.27261361936691   13.26784856916699   -3.00816709238269
H          -7.39878625231265   13.39657991327003   -0.46227434854393
H         -10.63552100451949   13.05859622788403   -2.52693005813524
H          -9.31423185949965   13.29315801936365   -1.39417611208131
H         -11.45288244341596   14.53336141664471   -0.81686082759893
H         -12.99740579432093   12.79196768545246   -1.59725018258858
H         -13.35090713599385   13.23903519138861    0.07431522900218
H         -13.39169709955896   10.74019761076223   -0.45074224989690
H         -12.41063216327639   11.21409409635554    0.93832158407481
H         -11.47800691632562    7.17625983648091   -0.68136955428828
H         -13.27794420933760    9.06017592457362    0.91927752864426
H         -15.48614827706753    8.83710930302721    1.76051650682597
H         -14.54845367580279    8.44750685849881    3.20205907519232
H         -17.36362857403782    7.50540888352693    2.49652045417444
H         -16.85043336336866    8.43893286032456    3.89995288494908
H         -15.47486460360096    6.42822030648438    4.64094931254490
H         -18.32584078732296    5.21748797744950    6.34439728310601
H         -16.54405202938160    5.15093878408123    6.29804168851790
H         -17.50948710574422    4.13460858264738    5.19502410376523
H         -17.10293510725509    5.07246001372220    2.45722386915934
H         -15.92294836881619    4.26639884165113    3.49623137366694
H         -16.48164779841935    2.81197183476834   -0.54372749874289
H         -16.97266276465685    3.71108042877558    0.88384862555430
H         -18.61638894984169    1.92569246631212    0.11708575651079
H         -16.91918895477514    0.30275485995331   -0.61135680317136
H         -18.05516929053829   -0.43430084162996    0.52275015279486
H         -15.60046487381630   -1.01139419436940    0.90011487304316
H         -16.46143958237072   -0.40425505577194    2.31439570633707
H         -11.98639259329304   -0.21646238624161    2.42844937921175
H         -14.59637461439798   -1.78265731309627    2.75681441793351
H         -12.88443744880314   -2.35612490768693    3.02396580467956
