79
 SCF done       -160.493330923058          0.000543706151
C           0.94927675965944    1.22572870334442   10.65586150916117
O          -0.04149726391247    1.54495217287730   11.50944520365776
C          -0.81707144885035    2.41262787898122   10.81622910093476
C          -0.23382106109585    2.56176763261965    9.52848187024336
N           0.89717870011274    1.77318334931385    9.49686683844359
C          -0.77261869442600    3.40255040575784    8.56985194901361
C          -1.89779631244325    4.10373492121151    8.97806121355781
C          -2.46546438921243    3.93187556753465   10.27628797374272
C          -1.95572304569349    3.08030693299080   11.23338212426881
O          -3.52409354695223    4.76560084705577   10.36845728539661
C          -3.56592695149368    5.41830730689909    9.15907527694561
N          -2.62130790505200    5.05905580236187    8.32834386319674
C          -4.56831468015073    6.38564965058382    8.93842836339983
C          -4.67639309806209    7.08184889191654    7.76479846723933
C          -5.66296355207196    8.03999052245353    7.52523602050381
C          -5.80639444066826    8.74849787082833    6.34778167406715
C          -6.78596291291134    9.72600396451789    6.07085213300622
C          -6.69301851629731   10.26926044571257    4.81924168381397
C          -5.63715206858069    9.74462845508583    4.05243856085785
S          -4.75971294570461    8.53973729814856    4.95755920239002
C          -5.27341567622774   10.08836103389366    2.75126875290948
C          -5.84778974066365   11.06795932225182    1.92193162808159
C          -5.23628474268217   11.16573368591650    0.70167260548530
C          -4.14836938655009   10.28476879235354    0.53125347629401
S          -3.93686658126660    9.30814965718896    1.95257521100398
C          -3.41202139682990   10.15068885446502   -0.64329621312733
C          -2.26893045759262    9.39967812273384   -0.85365016781716
C          -1.34551098222801    8.77323283733707    0.01247302862525
C          -0.39621061131874    8.08209798798609   -0.76422720531626
C          -0.69686226231788    8.28917563481977   -2.17203603046170
O          -0.16566105162021    7.88878591341755   -3.18430976975522
N          -1.81281724481230    9.11805067682776   -2.13525828775433
C           0.50954373749802    7.46775436495770    0.10616122421586
O           0.16058998657870    7.80828417772039    1.39001783596791
C          -0.93621017375894    8.65431976821445    1.39218912396860
O          -1.32812608523361    9.15996758225828    2.41368599074307
C           1.58052357281981    6.62180099004374   -0.10938681357434
C           2.27894101118385    6.02247586189433    0.93355705263373
C           3.35606199024033    5.12222940246340    0.84202653977597
C           3.79132742071177    4.65153503344394    2.05402189768377
C           3.06722231779391    5.16697396873780    3.14205932437042
S           1.83927581506345    6.28132260487139    2.59894015515914
C           3.19158789517234    4.87768860720188    4.49833512097756
C           4.08085441207296    4.00141553504562    5.14821970585273
C           3.89007451551754    3.92913885779546    6.49919917496503
C           2.83804083682674    4.74451859183646    6.97805582453284
S           2.11157161620150    5.62308411031248    5.64890525767410
C           2.39919994923838    4.83417246036447    8.27772450407238
C           1.32802793153865    5.60324679604418    8.74861038266561
S           0.33773879233751    6.69378087654436    7.78306128952979
C          -0.70360229128890    7.10050738103522    9.07901707872400
C          -0.32953776676226    6.44717381626851   10.23445043539102
C           0.80751909951127    5.60970176356536   10.03628778787187
O           1.12251896194909    4.94713897627742   11.16403594900511
C           0.19873505239810    5.34476738152189   12.08409241218326
N           0.26739770438642    4.76059648912973   13.36777105395927
O          -0.58900726179863    5.09757754671142   14.16482983016636
O           1.15663067861308    3.96440052417717   13.58264894396741
C          -0.70469426048173    6.25004743316665   11.59072146480739
H           1.70737700406041    0.54805751768953   10.99637028191816
H          -0.34837059530052    3.51251423175264    7.58785444478973
H          -2.38648723495528    2.96205241972317   12.21265106387799
H          -5.26155457888926    6.54993719333510    9.75030828986129
H          -3.95740617971011    6.87073295513928    6.98441065901103
H          -6.37621370458921    8.24992246555226    8.31220019203012
H          -7.52762755721231   10.00271243187184    6.79915407908185
H          -7.35494876130680   11.02612132490816    4.43890171887646
H          -6.67871506125655   11.67529175682750    2.23181351451365
H          -5.52927204200098   11.85723761663259   -0.06870770179800
H          -3.81132707440028   10.66934447651860   -1.50711775331226
H          -2.28588544645877    9.42042987069620   -2.97257740079117
H           1.85103559919402    6.40637036593598   -1.13120270819067
H           3.77529974524433    4.83908502518634   -0.10714157048131
H           4.59722181699122    3.95016751009231    2.17543401571804
H           4.82812513921217    3.44546428691872    4.61127393501715
H           4.46271566816140    3.30809486626229    7.16435210962251
H           2.89366564271045    4.22083011389543    9.01902218520364
H          -1.51093411203843    7.78515044619226    8.92128150455284
H          -1.51456621791035    6.68982108402265   12.13523325129443
