85
 SCF done       -179.360510393794          0.000438656434
C           2.14937154005743    2.99443885572455   -2.73151651836284
O           1.18245305799286    3.07670164064280   -3.67082468833928
C           0.02571704516614    2.98205163370103   -2.97014242132830
C           0.37553765838866    2.84246106433792   -1.59719190357557
N           1.75255330340741    2.85919677355162   -1.52192752651043
C          -0.57746385551863    2.71888868048625   -0.60250757413152
C          -1.88927162461498    2.74310439457276   -1.05234548095923
C          -2.21364210330799    2.88763926270783   -2.43410286185176
C          -1.27389331472389    3.01007197464878   -3.43835059873409
O          -3.55994660110250    2.87833711682491   -2.53486170269540
C          -4.00645072828722    2.73064538405110   -1.25102927100939
N          -3.06457850104645    2.64761645552080   -0.36077917788884
C          -5.41662286800371    2.68995842191202   -1.02004685373939
C          -5.94688086563840    2.51247563461456    0.20340690776947
C          -7.35876837883942    2.48724076144910    0.42504263893351
O          -7.82103315569878    2.26860278936774    1.69459270290830
C          -9.16422306223636    2.30924919790926    1.58688308579875
C          -9.47365947169645    2.56027237165139    0.21467823276801
N          -8.29053455233455    2.65965210201016   -0.46248210962812
C         -10.77744202131952    2.67002176338573   -0.23798732515527
C         -11.74521913892277    2.51478318316097    0.74287419697614
C         -11.40927191582337    2.25762145296018    2.10742130635522
C         -10.11481743765314    2.14755877984059    2.57574075630089
O         -12.56487431528413    2.15604449998139    2.79618249258823
C         -13.54487184745199    2.35049532708992    1.86352080024106
N         -13.10636113511730    2.56323282046377    0.65752168180459
C         -14.92063332514809    2.31091101142201    2.23252280157562
C         -15.34155215965277    2.05017752996089    3.49126072599542
C         -16.69872279463566    1.99237629164928    3.90369176080893
C         -17.18640830424775    1.68957481065382    5.16325526279763
C         -18.61286753252762    1.73771463512817    5.12761573152775
C         -19.01692017645415    2.09444593230161    3.76754960117634
O         -20.09128955068540    2.25652077044214    3.24945635005912
N         -17.79127437663482    2.22713443276543    3.09947111415819
C         -19.05335119757666    1.41902817675815    6.38804146370424
O         -18.00422262258296    1.17624360841071    7.20991013723895
C         -16.79925563695169    1.32789035803822    6.50954309805092
O         -15.73407146145874    1.16411413246813    7.03225487347575
C         -20.38559777431270    1.32101396766647    6.88526572291631
O         -21.40847891562803    1.60532261965584    6.02898907503897
C         -22.52447309004704    1.42946967946069    6.76217358716506
C         -22.11684546670789    1.03116247765889    8.07374954496122
N         -20.75470341077426    0.98328848856727    8.08447100548465
C         -23.03217460360942    0.76377097530043    9.08214007516638
C         -24.35746312409752    0.91661479783059    8.71340973365645
C         -24.73824054813236    1.32130420031599    7.39533439004960
C         -23.84229828865551    1.58907323892213    6.37942291088335
O         -26.08420337484045    1.37658236018459    7.36600213935495
C         -26.48046904071955    1.01256171082113    8.62551130241622
N         -25.50424163327065    0.73820531628331    9.43607287150037
C         -27.87953480115118    0.96675750607314    8.91200116535862
C         -28.36082809732746    0.58434138398958   10.10881594476038
C         -29.76155753760788    0.52902340363595   10.38763298433152
O         -30.16896458930699    0.09334365753223   11.61790664682926
C         -31.51772374187955    0.14457383219151   11.57366173164962
C         -31.88347582525673    0.62650861710341   10.28166010650784
N         -30.73005073199995    0.84873224873171    9.58299703692230
C         -33.20743897024023    0.79882986385818    9.90691269312571
C         -34.13232866429562    0.46433693180528   10.88064124566548
C         -33.73998560797155   -0.01836551427148   12.16417193379450
C         -32.42759590526241   -0.19435524177412   12.55602055352897
O         -34.86878971641657   -0.25104399038254   12.86837877305729
C         -35.88661903942039    0.08701272539514   12.01907096134978
N         -35.50172716687180    0.50660085202074   10.85686436306369
C         -37.24161713389230   -0.05358177572303   12.48778162922378
C         -38.29455900711027    0.25388422439859   11.73761308473311
H           3.17057427976578    3.04684459730206   -3.05529132876384
H          -0.32265721983352    2.61302829843928    0.43667857249553
H          -1.52796467646396    3.11668593811852   -4.47852683494400
H          -6.05485204934576    2.81017778824426   -1.88255389795259
H          -5.31242260638948    2.38369109205242    1.06708287911606
H         -11.02103017506269    2.86155357177951   -1.26748291701499
H          -9.87232740929290    1.95597988908907    3.60640222050946
H         -15.59816257863527    2.49949373640654    1.41351292638834
H         -14.61745689431685    1.85813720322232    4.27099517388194
H         -17.73942086670130    2.47452959569666    2.12374711023156
H         -22.73312247136591    0.46177544902547   10.06974826186812
H         -24.13537802871709    1.89051339074302    5.38908520999667
H         -28.55037254068109    1.24942322848128    8.11492014699694
H         -27.69154484062922    0.29641179894587   10.90544872663375
H         -33.49225310502332    1.16252353201882    8.93595873474233
H         -32.14236669354366   -0.55924688122166   13.52746940351097
H         -37.33760145555900   -0.42822050642022   13.49695723631215
H         -38.16051632754950    0.62553987574512   10.73656322521845
H         -39.30014510566795    0.14338581251231   12.10323022916988
