80
 SCF done       -127.907028122045          0.000391189902
C           1.44329849865231   -0.93675051729411    4.97768260785235
O           0.49672211419566   -0.24584141286995    5.75140918063349
C           0.72364100492689   -0.09270905522830    7.09666923989959
C           1.84029422014952   -0.61566500824749    7.73111496999230
C           2.04024942078060   -0.44243637502331    9.09170713956656
C           1.11496675684582    0.26421152292304    9.83452331252757
C           0.00150408232267    0.78749845517744    9.20869526698952
C          -0.23612944346879    0.63246411986526    7.83979704651866
C          -1.43979758798219    1.22314721432738    7.30234208313863
C          -1.89495394125375    1.19139817629572    6.03830206304748
N          -3.01804370671646    1.84592242626003    5.62575538366060
C          -3.68183929742336    1.57289392925381    4.37302834393131
C          -4.26649128784315    2.84554821687550    3.81100497914149
C          -3.25070544600699    3.88924321535896    3.47267967598626
C          -5.59606085020012    2.99324792227873    3.71704963316148
C          -6.34701205489054    4.12222864498633    3.23459749017157
C          -5.94689583100440    5.05219625489604    2.34466039309255
C          -6.75051243557555    6.15484089233534    1.93524280542945
O          -7.98606828498853    6.37596414699793    2.46043311095859
C          -8.49787528519606    7.48859943477950    1.91029322794877
C          -9.78993668288800    7.92607983241723    2.32194989626726
C         -10.50891513942612    7.24909427774874    3.24642133222614
N         -11.75402477570686    7.56956691048944    3.67415455013149
C         -12.38937957291844    8.83113680453917    3.34927239247394
C         -11.64116407173531   10.01863296519833    3.91516913616388
C         -11.39533643199903    9.95387683361284    5.39280615387325
C         -11.26013281284317   11.02085016775250    3.12547159331417
C         -10.48716567550503   12.19800465628748    3.51596877902972
C          -9.34347897709641   12.10393180700741    4.29746621066656
C          -8.60328047427588   13.22833787954756    4.62000563372800
C          -9.00437191606738   14.46585166213714    4.15509645194502
C         -10.13255348415240   14.58508910729221    3.35881390219635
C         -10.87559010086673   13.46049045603637    3.02854547139165
O         -12.00307212462175   13.47551241998620    2.26049188348228
C         -12.42199179067784   14.69599162901775    1.70349777020254
C          -7.58237173354096    8.02495657360021    1.00059535091588
C          -7.75931855320133    9.26740279765482    0.21360679301068
F          -8.91255422077282    9.90878580059868    0.44684024335182
F          -6.79354745447824   10.18655910504931    0.44740053503470
F          -7.74058373572331    9.06476717380303   -1.12634588950812
C          -6.45152307513006    7.15485790698480    1.02009143588991
O          -5.25637513723263    7.15019284507805    0.39117310507932
C          -5.02302225895235    7.97666962177260   -0.72970474332152
H           1.06093004371842   -0.91486570503315    3.95725508353825
H           1.54793418591628   -1.97913010691888    5.29768742444213
H           2.42343759298121   -0.44855540293572    5.00286843508915
H           2.57624525500852   -1.17047097326108    7.17024421901648
H           2.91915615805811   -0.86160542708059    9.55845617861106
H           1.25878045841651    0.40806173442931   10.89515713640200
H          -0.72067780668065    1.34102053918319    9.79234016225914
H          -2.03598721238852    1.75963800190842    8.03273663221115
H          -1.36258901898391    0.67692320638896    5.25639496388206
H          -3.60092077021749    2.24622467933937    6.34631783781550
H          -4.47013519195172    0.81391385367488    4.49329774629809
H          -2.93211629130594    1.17691854792520    3.68066821690152
H          -2.36720219637953    3.75068819901236    4.09348541314082
H          -3.64811049326585    4.88857683429183    3.63220858090947
H          -2.94525529413284    3.80515298966917    2.42934097063653
H          -6.21254691100042    2.17762068046559    4.08036250111272
H          -7.35577076448321    4.20255109377954    3.62047057047951
H          -4.99175242080533    5.00237406983006    1.84979269892180
H         -10.16946424958743    8.83063624088574    1.88821542447506
H         -10.10205262626880    6.34332858587709    3.67472427832958
H         -12.07275210924007    7.11308466161760    4.51288619119163
H         -13.40439622286256    8.79882641443776    3.75666391067051
H         -12.46066524434047    8.91602112340544    2.26169301636926
H         -10.57565982062569    9.27110234496033    5.61953391712297
H         -12.28657361127977    9.58821267162519    5.90316801414480
H         -11.14320314138100   10.93412445694612    5.78689938530739
H         -11.55631838261771   11.01348825935979    2.08397869088194
H          -9.01445960628606   11.13002524492946    4.62506563325756
H          -7.71386150920861   13.13535391714345    5.22456768604177
H          -8.43559289076886   15.35046093983891    4.40062262081399
H         -10.41892094369272   15.56117400648500    2.99969313214910
H         -13.30751173901537   14.46175033931348    1.11427053556542
H         -11.65628255944703   15.12525746533263    1.04916113808109
H         -12.68761952698413   15.42306400976492    2.47822414211416
H          -4.03573573935163    7.69073888337584   -1.08964870729721
H          -5.00857991895316    9.03500582721747   -0.46258318978072
H          -5.75761992621563    7.80205635523642   -1.51923653221932
