97
 SCF done       -186.312175599733          0.000409920832
C         -16.18018572081154  -15.14236280910687  -12.58392600257756
S         -16.41643209168180  -15.73788856948480  -14.17958425276110
C         -17.59296043139972  -14.51212726078148  -14.57611880694879
C         -18.20001313554763  -14.42520337040258  -15.93229104306363
C         -17.25106764152202  -13.73990432346022  -16.91827754075783
C         -17.76102437301466  -13.69763796172676  -13.50482170688943
C         -16.96136567445219  -14.04766331180778  -12.35259417519738
N         -17.12711738947519  -13.24111187085687  -11.27779003538273
C         -17.98099539373320  -12.30516251671197  -11.49898713580696
S         -18.72440491603352  -12.30249482953992  -13.14027566930725
C         -18.37087794952075  -11.28729365535105  -10.58724880886792
C         -17.85176648097333  -11.19154646526476   -9.34170551395111
C         -18.20126925094790  -10.17817681339250   -8.41448902720051
O         -17.60635246737089  -10.15718960714869   -7.19559540686596
C         -18.07180755052112   -9.08865617321295   -6.49444777367044
C         -19.00699295404433   -8.41783637734472   -7.27677275965705
C         -19.08907746709738   -9.10894816565184   -8.50220171599268
O         -19.87784470682225   -8.78827097392296   -9.54764340226210
O         -19.76673581575461   -7.32297320116157   -7.00866284939456
C         -17.55338505294302   -8.88808174936486   -5.18834043106429
C         -17.72980380095508   -7.81142326797095   -4.38354962370072
C         -17.15690906299584   -7.72046768752625   -3.08618362628400
C         -17.27997283462215   -6.63440508916480   -2.29415936416179
N         -16.71503500610541   -6.54973336487868   -1.05061515719693
C         -16.76661669373684   -5.48494525497837   -0.22335729558138
S         -17.63522033287122   -4.05172359619654   -0.66973098835015
C         -17.18732518544199   -3.32633993480542    0.84498633155325
N         -17.57997310913038   -2.00639800077267    1.06404680590059
O         -17.29068268176096   -1.50037160453946    2.13802622658505
O         -18.17077925746703   -1.44976364247480    0.15479280787590
C         -16.42614612404263   -4.14005272984873    1.63593413109451
C         -16.15368113076559   -5.39237174551876    1.04393692564762
C         -15.32123269778932   -6.40590135322565    1.60772327913423
C         -14.73307120784751   -6.32206134895249    2.83211789165629
C         -13.84693407856786   -7.27189411839030    3.36829417669968
C         -13.27119619339806   -7.12600026165286    4.60661678037075
C         -12.33289929923787   -7.96848275080300    5.25193300047776
C         -11.94627451828058   -7.53724353409221    6.48652001349482
C         -12.56991358974276   -6.33610090012131    6.88978948258920
S         -13.64583497917262   -5.75878841011763    5.64469317334885
C         -12.47637830343936   -5.63711711795981    8.08000768395767
C         -11.73309058575401   -5.88460546726765    9.25168511173312
C         -11.99783885081851   -5.00282291144578   10.25985736229421
C         -12.98555633694882   -4.03467098023413    9.95157596438581
S         -13.49917686832798   -4.23728098371050    8.30138610106888
C         -13.44250296752073   -3.02617131588574   10.78392314262313
C         -14.45755818021378   -2.10054530718741   10.54206192082700
C         -15.49861347769345   -2.10904536217948    9.62959431639877
C         -16.09028790513015   -0.81684165185809    9.19595474469256
O         -15.90691714745745    0.27183887545105    9.69411487131676
C         -16.89970246564078   -1.13920476047851    7.99701459029612
C         -17.54381225360571   -0.30678027028378    7.12895576668871
C         -18.20493532427804   -0.85989542417768    6.00546511345956
C         -18.16782245180891   -2.26795858453143    5.79791361302137
C         -18.79516020051539   -2.81121499243289    4.66117950880333
C         -19.44883617711490   -1.99661981882216    3.78126057056988
C         -19.51048724342882   -0.60771823926534    3.99726959644938
C         -18.89433094822296   -0.05016480782405    5.08344056916503
F         -20.18453752657470    0.16365245870029    3.13615738316828
F         -20.03544220318608   -2.53025132578827    2.69512194561465
C         -17.51067151549178   -3.10787452144283    6.72600279489670
C         -16.89888982576425   -2.55032533715914    7.81343952640478
C         -16.15455438586605   -3.15821173423849    8.91184192937224
C         -16.21365815976641   -4.49183318060815    9.25880143715256
C         -15.66403343858325   -5.00855908831623   10.44494767654483
N         -15.23647197089551   -5.47000661957495   11.40616476498628
C         -16.86489812369390   -5.47908059725132    8.49867674321947
N         -17.34109600023202   -6.33931990811838    7.90352334029336
H         -15.49107144068087  -15.62670905975355  -11.92415971363519
H         -19.12831037091136  -13.85364626872673  -15.85933747561885
H         -18.43569374080432  -15.42818405669626  -16.29451219154400
H         -17.01542693402266  -12.73416537412676  -16.57785799483993
H         -17.71211739452262  -13.67585975570030  -17.90042464976215
H         -16.32478602315805  -14.30378934694119  -17.00302680450091
H         -19.10421165025855  -10.57488334796841  -10.93268000051487
H         -17.11915399947426  -11.91327160557494   -9.01142482700011
H         -20.38577773068699   -8.00082846163378   -9.30839401166060
H         -19.68060413230022   -7.08159075364007   -6.08093124594238
H         -16.92945320054768   -9.70082555217216   -4.84105729666123
H         -18.29470032456370   -6.94988038584151   -4.71170905702220
H         -16.59043341143213   -8.57352020648837   -2.73622069612416
H         -17.83255024956329   -5.76120566280531   -2.60780833002951
H         -16.19941432143211   -7.35992184365088   -0.72857177320648
H         -16.06917035116592   -3.81908094222362    2.59701775535882
H         -15.12343730200683   -7.28552830583967    1.00805823539807
H         -14.93429972584206   -5.46157607795440    3.45458608932286
H         -13.58898400283467   -8.14528112389609    2.78437773843142
H         -11.97247812349112   -8.86738296244110    4.78320128235815
H         -11.24432734533289   -8.05056668532922    7.11899148928395
H         -11.03793886754482   -6.70152204876435    9.32575192875736
H         -11.54223695105260   -5.04043987068027   11.23310010185029
H         -12.88588891848024   -2.90156224594500   11.70421637954083
H         -14.39791534353524   -1.18003184327203   11.11626834506081
H         -17.54662716526146    0.76085861237564    7.28812818506722
H         -18.76264294392393   -3.87523041885220    4.48322769229793
H         -18.93794717511927    1.01808210810601    5.22700910569242
H         -17.49741177415561   -4.17120893807428    6.54742273651600
