92
 SCF done       -162.872171289176          0.000847252249
C           3.93374308494771   -9.30093657593470    0.28767701948828
C           2.71904680646733   -9.12817793778049   -0.36213549664131
N           1.58445818442467   -8.46229423735091    0.05368736224983
C           1.50813138658063   -7.81525782069961    1.33622844699266
C           2.03396141436974   -6.38131911467341    1.28681416802215
C           0.63411402735464   -8.53377968117279   -0.93775192311662
C           1.16209059028290   -9.30746741831314   -2.00826293678448
C           2.49869905932731   -9.67593549329981   -1.64239888727807
C           3.49501563908972  -10.40832565221116   -2.27432956083015
C           4.69891722420568  -10.57971325730298   -1.62156253282400
C           4.91223836852689  -10.03191406123422   -0.35859812487674
C           0.41508160539553   -9.59287677239580   -3.13827464878712
C          -0.87705008631619   -9.10695069550219   -3.20970133126550
C          -1.39921067072719   -8.35096191154722   -2.17596760857925
C          -0.68087157689002   -8.03056242175340   -1.01548554671186
C          -1.29376846018512   -7.16932352265443   -0.02386497100040
C          -2.62520264710613   -7.03535910129798    0.15493802840913
C          -3.24587811092214   -6.11005617442600    1.04964323092516
S          -4.79745375746469   -5.46457260657124    0.61958526378488
C          -4.76331217668591   -4.43297789525397    2.00847457055545
N          -5.85179631522948   -3.58411665399966    2.24220575267831
O          -5.80048330763428   -2.85462659144153    3.21612064716952
O          -6.77705145680295   -3.63916448870330    1.45011780225815
C          -3.63364930874389   -4.59061999225401    2.76894812610835
C          -2.76295147788296   -5.56199712236699    2.24370913951638
C          -1.58367157944447   -6.03938368300014    2.92237275858666
C          -0.84823776806389   -5.30898303621776    3.77791165903182
C           0.28981689327781   -5.80170418582001    4.49378591204687
C           0.72609750184830   -7.08487260352488    4.66515704892784
C           1.91555687044575   -7.18655228756277    5.42780608223351
C           2.38688798378920   -5.91410917774123    5.84986387867315
S           1.34102254324418   -4.64064273986774    5.28945506588454
C           3.52430734620732   -5.75970017978273    6.60920184567735
C           4.22638589565806   -6.90896577729166    6.97280722189818
C           3.76068326139002   -8.18128825323368    6.54546581388441
C           2.62454375662272   -8.33452117553013    5.78297847375817
S           4.80143763948803   -9.45579579270319    7.11659738544393
C           5.83268004539544   -8.29215700085690    7.93978193525289
C           5.40209972463169   -7.00722403799411    7.75582567019974
C           6.97721523516078   -8.75148096744002    8.65579266234088
S           7.77019975063661  -10.20775247577570    8.15086406525699
C           8.97324652520272   -9.97236960727136    9.37054670396142
N          10.00234704806713  -10.92063532896617    9.48185963715047
O          10.84755636791570  -10.73923355373690   10.33733651758033
O           9.97095085393963  -11.86126511672379    8.70853182003574
C           8.77126636262634   -8.85163410352209   10.12881360792274
C           7.61462345315787   -8.13800610553594    9.74613328655490
C           7.09324297620960   -7.00056009899016   10.43938751122007
C           7.78124411206412   -6.23855531792767   11.32801899402096
C           7.20243342244453   -5.15115439899880   12.01194779190667
C           7.86439517254661   -4.34170170031878   12.89455747088963
C           7.31637516104358   -3.23803012065148   13.60292129248786
C           8.19579263314860   -2.60111998635662   14.41664036783691
C           9.50015992582388   -3.15881036715962   14.40660480203212
S           9.55994024131561   -4.53174951164987   13.31599411237648
C          10.59729265245741   -2.73814303295877   15.11756179189573
C          10.66482412436804   -1.64214757736079   16.02606379618884
C          11.87918462536711   -1.45799012353646   16.58625715381608
C          12.87682124798465   -2.40035200591074   16.16372343604147
S          12.15559141728321   -3.52930497456825   15.00500639451981
C          14.15821187740872   -2.46290004295221   16.54821861646342
H           4.12510584893774   -8.88129449069855    1.26377109580384
H           2.10740857754496   -8.39635009084976    2.04386751356731
H           0.47418802824068   -7.83986528689287    1.68196990478213
H           3.08088429699779   -6.37849834898951    0.99252157636108
H           1.94357773605982   -5.91528198812468    2.26396442140207
H           1.47851419123014   -5.78856709447230    0.56310948848170
H           3.32866542972768  -10.83063647248891   -3.25351399874409
H           5.49025815851121  -11.14294641613274   -2.09265572591425
H           5.86592845577056  -10.17912289866648    0.12603617444683
H           0.83899901396372  -10.17698477422086   -3.94003885097459
H          -1.48326545768726   -9.30380174884765   -4.08064561640927
H          -2.39385985155988   -7.95000206919165   -2.29009773084184
H          -0.64131354061145   -6.53492001910365    0.55608535624339
H          -3.31213012637733   -7.60536352573135   -0.45551845913864
H          -3.47223176415102   -4.04990722646245    3.68355521907751
H          -1.32092005779820   -7.06887345845402    2.72441073938207
H          -1.08032001775155   -4.26400058733129    3.92929395034848
H           0.20836334259898   -7.94575696714348    4.28302837466722
H           3.86470927058972   -4.78525371760086    6.92141863416682
H           2.28489823678210   -9.30953220424648    5.47126509592380
H           5.93228620133155   -6.14712360239762    8.12214064090854
H           9.41969613516354   -8.58118643566842   10.94179059734454
H           6.05762503703510   -6.75766343537625   10.24532675932568
H           8.82612989716941   -6.43731071114456   11.52394855961782
H           6.15716329418435   -4.93574613991520   11.83064913445930
H           6.28481937909043   -2.95759983906245   13.48114897111585
H           7.94960376912208   -1.74857617195520   15.02377470917711
H           9.80423955144466   -1.02983284917416   16.22922227941601
H          12.12103446365498   -0.68440812811156   17.29329128727643
H          14.55388017505084   -1.75401617360935   17.25412380793387
H          14.82784898672359   -3.21244347839091   16.16847751731313
