72
 SCF done       -151.350441123062          0.000435826285
C           6.75279382537534   -3.30973052683478    2.91724867205222
C           6.75042331770655   -2.20598874353061    2.15573576947802
O           6.73429448738305   -0.92949446052365    2.65644025198812
C           6.86162269983349   -0.87134847929779    4.02324317390046
C           6.86776507976398   -2.04616579965592    4.83183221946148
C           6.99363293054482   -1.76396437415985    6.15220157791490
S           7.10592944776695   -0.06454008715996    6.42307691155104
C           6.98285264481814    0.27101896100075    4.73857164328018
O           6.75688019425964   -3.29848443344846    4.29611263713159
N           6.76264791311099   -2.24495435938162    0.77393674271563
C           7.02113150940314   -1.19743529095300   -0.05467844934008
S           7.21921616102521    0.40888321411666    0.54115322208083
C           7.58786494789671    0.94207749617113   -1.07323899938510
N           7.96002147492321    2.26470393386490   -1.22260314179622
O           8.23901629413555    2.68885930722404   -2.33480020052789
O           8.01402026363226    2.93800696084874   -0.19464646729166
C           7.53328094931864   -0.05786653653545   -2.00519617202975
C           7.19885628918326   -1.30770696973039   -1.44577222646261
C           7.08943122540741   -2.53190596492893   -2.18670920527847
C           7.47338290225874   -2.62065892486983   -3.48498509837597
C           7.46723064669229   -3.75510346537570   -4.31978521250962
C           7.98207937408873   -3.67074629744374   -5.59072535198910
C           8.22497590202931   -4.68342418614111   -6.55422005133419
C           8.89178080889137   -4.25492815590809   -7.66525019370601
C           9.20478193163468   -2.87724867404065   -7.64349248809186
S           8.55704475832121   -2.13099543420887   -6.20680714481080
C          10.00371567611088   -2.08767908858882   -8.44834813267373
C          10.83367819309802   -2.37321299342691   -9.55400590394873
C          11.68095969203251   -1.35550662749302   -9.88364837081083
C          11.58064142967120   -0.21652551426516   -9.04053624261091
S          10.24095239047134   -0.43431719308944   -7.93181464796096
C          12.35354693109423    0.91581086586244   -9.01464842576618
C          12.30692000410825    1.85188609263291   -7.95035820654809
C          12.04847671817367    1.60744765989851   -6.60222366175861
C          12.14566258215052    0.33885452003040   -6.00979677513234
N          12.34576941659245   -0.67230847552914   -5.50410931832445
C          11.98804404413274    2.79760419878513   -5.82959274387354
C          12.29708895114787    3.91888823855620   -6.58780503706457
S          12.59760948531168    3.56245935020480   -8.24854989165462
S          12.34946438110960    5.40672210193374   -5.69359095399793
C          11.92111337001317    4.50668424022266   -4.27144976341889
C          11.72973694552843    3.14766086169607   -4.47364970763521
C          11.30451257249409    2.49550139198393   -3.28023129029857
C          10.82384949974538    1.17702647910468   -3.22573675422658
N          10.35264702884823    0.13086712511165   -3.21392166397612
C          11.25015827711960    3.36585905131366   -2.20461571291224
S          11.66067626609586    5.00241517950327   -2.63953343960189
C          10.93730806362569    3.02202344799872   -0.84704593587984
C          10.76888681721890    3.91606793821444    0.14522529466917
O          10.49859006097318    3.61062149336553    1.44183650207942
C          10.35483278761684    2.27358146799571    1.67711217742590
C          10.53898174842203    1.30534391860107    0.64333181739415
C          10.38344441834553    0.03199617393493    1.07605549103550
S          10.00490647285861   -0.01045334536345    2.76033987245582
C          10.05458591394122    1.71007268250748    2.87231074735456
O          10.83118193249762    1.65277866172415   -0.64291400849678
H           6.75994842131805   -4.30775037337663    2.51911169460653
H           7.02332682377850   -2.45003880286110    6.97220407211181
H           7.00193500933236    1.27521527827803    4.37070115249126
H           6.73266067810112   -3.16251913929187    0.35338312996573
H           7.75153789256646    0.12308006897965   -3.04044631446864
H           6.69847675732923   -3.40641197695916   -1.68165862104880
H           7.88601108867995   -1.73108851429432   -3.93812397757674
H           7.10164588372658   -4.70506352373335   -3.95521215415236
H           7.93579974370525   -5.70536836389165   -6.37953494100462
H           9.18891580376316   -4.89220228246725   -8.47969701884619
H          10.80940950393207   -3.32674896784036  -10.05190914589669
H          12.41737155428637   -1.40775838078485  -10.66629189212282
H          13.00858461152041    1.12659942120147   -9.84822022575233
H          10.83678873926964    4.97783893133362   -0.02051467879781
H          10.46983733202824   -0.86717850742650    0.50244042249847
H           9.86955010739125    2.19897651963711    3.80544076719290
