76
 SCF done       -154.853616212601          0.000453831679
C          -3.07974796860725   -2.32824502819299    5.95858223044179
O          -2.55444019565729   -2.80200291582807    4.83019082054575
C          -3.54177568303998   -2.87161858083551    3.90379866592969
C          -4.72180783966395   -2.43156360360816    4.45511654199150
C          -4.41483354707459   -2.08038220004680    5.79228091236803
C          -5.35934195843037   -1.54252576685705    6.80384144132926
F          -4.78675763081541   -1.39940428703611    8.00918895315876
F          -5.84291535285933   -0.33289793247107    6.46595844388892
F          -6.43199045489285   -2.33362760487797    6.97939464325149
C          -3.26623692958483   -3.34359769668530    2.57635858051243
C          -2.04815780157783   -3.71786944751267    2.15815468729473
C          -1.75737979606054   -4.21231423712359    0.82119924567648
C          -2.69323360946503   -4.98518607964922    0.16474398496887
C          -2.45769246340377   -5.48728340454686   -1.12262204735813
C          -1.23139230102896   -5.24152267932417   -1.72034584225723
C          -0.23681680051802   -4.49118742199051   -1.08491223482969
C          -0.51128388305686   -3.93819430448618    0.19243343059449
C           0.45417281131848   -3.09098475356106    0.80183481294001
C           1.64623985721629   -2.84200968021708    0.21044002476460
C           1.98734865647007   -3.42640102234783   -1.03936221544265
C           1.05111370774004   -4.25629143286786   -1.69895156909108
C           1.43154435499947   -4.82050140368794   -2.92707803877060
C           2.66665152573293   -4.57500023991621   -3.47549980088583
C           3.58164263503958   -3.74857650685000   -2.82253198215205
C           3.24264006373995   -3.18410750751824   -1.62066194455114
C          -3.49386682782277   -6.26415482423430   -1.77087304798727
C          -3.64159516832724   -6.39066472228952   -3.10137932506482
C          -4.65128021193730   -7.16092109195387   -3.75706651020518
S          -5.09921984926260   -6.73875475163312   -5.38388714915419
C          -6.27469292681160   -8.01159909761409   -5.47820516800627
C          -6.29339268966228   -8.73189792782888   -4.29602841889833
C          -5.38425442500892   -8.25293294223103   -3.32985541944859
S          -5.08523044074908   -8.99509562256315   -1.75812357519037
C          -5.66875633076496  -10.66466041335227   -1.82249155062258
O          -5.24836770841855  -11.43009457038560   -1.00030779574100
C          -6.78565736115789  -11.10058205259086   -2.74567386403437
O          -7.34095003464280  -12.14811164059827   -2.56714253686581
S          -7.41228848192738  -10.07102886515362   -4.03755838262522
C          -7.03999684889007   -8.14429781203665   -6.67451246535637
N          -7.94501661851462   -9.13219364255474   -6.92992585168672
C          -8.50554873413511   -8.96579236726282   -8.15508938876285
C          -9.51869998872508   -9.83901260477577   -8.67744710629496
C          -9.93292918808465  -10.97004798379631   -8.10727086292014
C          -7.94240037708231   -7.80735296215982   -8.71528181855185
C          -7.02051700668773   -7.30647348949987   -7.77929862278741
C          -8.23493839801063   -7.21441976892630   -9.99280482167536
S          -8.62246329114789   -8.17030437160602  -11.38898937764985
C          -8.77945025638375   -6.77891747760990  -12.37242073692965
C          -8.54045510827185   -5.63106498088268  -11.67423856390501
C          -8.22554611816958   -5.87347058031418  -10.31671026409445
S          -7.95082492407795   -4.63394482084871   -9.09581958723260
C          -8.44906723629331   -3.07685714655822   -9.76713280562120
O          -8.57555985131147   -2.16917630329798   -8.99213250194697
C          -8.59206641701449   -2.80536737606738  -11.25301484561396
O          -8.67717172855750   -1.67006362484113  -11.63229354362436
S          -8.59728376042677   -4.06871592702602  -12.48547857116700
H          -2.43801330403372   -2.20644072042614    6.80833730916054
H          -5.67840515527226   -2.36571191011062    3.98063752493083
H          -4.11717669497719   -3.35149636049701    1.91159822140635
H          -1.22630979992444   -3.65888108524652    2.85741666876475
H          -3.62759705041241   -5.21841967514851    0.65316464735234
H          -1.04516130208471   -5.66532605306077   -2.69286005266453
H           0.22081013901859   -2.62396457025239    1.74553148600296
H           2.36806772831305   -2.19128075277518    0.68297843501459
H           0.75640879746334   -5.47164930115625   -3.45909731009218
H           2.93429290675733   -5.02698137423944   -4.41930598304115
H           4.54911835353832   -3.56115116759036   -3.26377397867797
H           3.93999547202726   -2.54479257584023   -1.09845753753278
H          -4.21702761697981   -6.71933136038402   -1.10841554336449
H          -2.99855797521576   -5.83388734467310   -3.76969517772622
H          -8.17853095131022   -9.88201066718127   -6.30082576676822
H          -9.96103763979947   -9.52151458237640   -9.61074519357341
H          -9.52173600271297  -11.35090378444788   -7.18745428908757
H         -10.70604832256299  -11.56609624163608   -8.55740702680682
H          -6.39049048088654   -6.44869862350240   -7.89756741985341
H          -9.03895218910630   -6.86704434901754  -13.40719627796796
