108
 SCF done       -180.705073070121          0.001399766986
C          -1.87656313827615   -7.01541890214050   -6.53104903270109
O          -0.66616444729297   -7.29907109379606   -6.05284777862558
C          -0.80896615635018   -7.70608866512470   -4.76486586954160
C          -2.14075878086665   -7.67990619072987   -4.41931354255123
C          -2.82921874650900   -7.22981657242690   -5.57138771034455
C          -4.29442532659390   -7.02678614456845   -5.70869596493304
F          -4.63047949077311   -6.57534948217862   -6.92924380575171
F          -4.99588002581523   -8.15719322113918   -5.51582581906278
F          -4.77798402374307   -6.13355867631206   -4.82776732706425
C           0.33168198730471   -8.07094496299597   -3.98237531822031
C           1.59951125726497   -8.02107557397606   -4.43288807947176
C           2.71218203783153   -8.37785484224299   -3.61141453461344
N           4.02228102503124   -8.28877071673844   -4.01855649910258
C           4.86575247221701   -8.67135386695777   -3.02119387250764
C           4.09330614575985   -9.02073447420658   -1.93276916107385
C           2.74302839485700   -8.83420666220682   -2.31155742701747
S           1.72238481157211   -9.31614093126328   -0.94052797077390
O           0.96937806521945  -10.49997342738803   -1.25849260690423
O           0.98037970892842   -8.19720460821953   -0.41880675827602
C           3.15981157136799   -9.69420236764123    0.10500388398723
C           4.29860324644140   -9.48748232768103   -0.58977818521937
C           2.88995122713024  -10.10821238185475    1.43329978478022
C           3.83855961776063  -10.28369628019297    2.38336389813957
C           3.67070491285548  -10.62923079665209    3.75340326367674
S           5.10764373316447  -10.50374510520438    4.73583126358924
C           4.24183442221491  -10.92369068954168    6.18296693210081
C           2.90193727002614  -11.14780818818546    5.89984813651611
C           2.58437916396825  -11.00677753401897    4.53411944337573
C           1.18965164715713  -11.24853225521522    4.00435811071615
O           1.15794812081913  -12.01307019520846    2.81117868332674
C           1.76683980630807  -13.27946232210821    2.85282474129406
C           0.27876248773415  -11.84357007056743    5.08708352657897
C           0.47058342078063  -11.10886539342900    6.40422083054803
C           1.86373787627810  -11.41536284617595    6.94445023710908
C           4.97561513106288  -10.96240989825368    7.40078222477280
C           4.59849049898213  -11.53571617917161    8.56647679989941
C           5.38982689284923  -11.51321001461793    9.74613978324587
S           6.89720726989316  -10.65031225531063    9.83630684858356
C           7.12110105693166  -11.10033174121906   11.50656108150366
C           6.08604266846641  -11.91208470446548   11.94229232289947
C           5.10703869318343  -12.13015410715132   10.95597502426741
C           3.84506559735462  -12.92401143385167   11.18806042226184
O           3.59591934763963  -13.88308994378336   10.16630947526736
C           4.58109692534964  -14.87014804545157    9.98470222104759
C           3.79451701387940  -13.52371222342746   12.60567665490684
C           5.17077501680226  -13.84837526244635   13.17570581586514
C           6.00637602539637  -12.57572413638610   13.28011791280882
C           8.28801250041240  -10.60121113512807   12.15464387460149
C           8.47073544183396  -10.50981985574753   13.49086357121530
C           9.63235059950000  -10.05326628300815   14.18399367582080
S           9.48210074340740   -9.98151950698590   15.92042216673618
C          11.13097195833062   -9.47209585967016   16.11299222116981
C          11.75761926562688   -9.38424458333055   14.88841584484261
C          10.91227118066015   -9.68872493794341   13.79602139878333
C          11.38843166120040   -9.63138768463542   12.36613922391071
O          10.59853787033235   -8.78593839280099   11.53352945173333
C          10.25562512698495   -7.53066882359650   12.06771982074594
C          12.87056007795281   -9.23629088287330   12.25222026590158
C          13.69379349727081   -9.77735577620266   13.41011002114128
C          13.21963470103672   -9.12551422940122   14.70562382441894
C          11.60750431795149   -9.23531965552875   17.45012616816668
C          12.65206132612260   -8.49200223663089   17.80886075957217
H          -1.95844369969803   -6.67524563027672   -7.54433497496317
H          -2.56682352086992   -7.94369287508750   -3.47438250414218
H           0.12856552002985   -8.39252329867699   -2.97155260022203
H           1.80768550606476   -7.69505910339724   -5.44307267321608
H           4.31045676200235   -7.98152516628361   -4.93399145555373
H           5.92905733716499   -8.66643844412625   -3.15291747675998
H           5.29016312393977   -9.65194173987503   -0.19946279394807
H           1.84584561005767  -10.27157427853558    1.64398658839635
H           4.86987013792690  -10.09219370072781    2.11028120510284
H           0.77118252465615  -10.27929664969799    3.69397889759211
H           1.81407054856510  -13.61452484908535    1.81833959470570
H           1.18098149525324  -14.00107888154311    3.43324716754725
H           2.78145124163374  -13.22990863579164    3.26236206765671
H           0.52297085679497  -12.89763067924236    5.23160853731023
H          -0.75377002456496  -11.77954130357246    4.74175907847886
H           0.36128980840862  -10.03381512759814    6.24588679852560
H          -0.28272007526200  -11.42438604147039    7.12767829911613
H           1.90899218419055  -12.46567045654031    7.25060925792271
H           2.07247312695731  -10.80287453820384    7.82484816461272
H           5.95502323701933  -10.49978583986904    7.35691344644455
H           3.67734054593564  -12.08835412687518    8.64689363533611
H           2.98746844090924  -12.24510364580235   11.07308295948566
H           5.57912568486239  -14.42962007520278    9.88736704440826
H           4.32565301668680  -15.38155688568672    9.05742737863057
H           4.58298327560812  -15.59956467823638   10.80211122442577
H           3.17113219918014  -14.41895362535652   12.56955902695907
H           3.30579772205236  -12.80568664627891   13.26754339308110
H           5.05783681939317  -14.29632723982959   14.16507296046636
H           5.69072343114038  -14.56577791210333   12.53943558066279
H           7.01088254564681  -12.81632283838485   13.63425401987980
H           5.54440992935465  -11.89716831176709   14.00484574739327
H           9.03905775636456  -10.21297775018832   11.48389344693757
H           7.66440342752225  -10.79028361715615   14.15346557119422
H          11.25235239289881  -10.62935172689564   11.92277685167181
H           9.51101149605735   -7.62421875617914   12.86750026529156
H           9.82461264283629   -6.96499666028218   11.24318687150943
H          11.12652857372718   -6.99264867814731   12.45674050666186
H          12.94676605065823   -8.14633623225563   12.24108501886636
H          13.25163701223918   -9.60024784469167   11.29682387039300
H          13.57261617376840  -10.86106540313194   13.47714582335451
H          14.75163122933465   -9.56211523899106   13.24870476190946
H          13.40965039459087   -8.04811515301447   14.66004564524908
H          13.76836355527284   -9.52769870055330   15.56004176713589
H          11.00626549940868   -9.70195473437211   18.22120133139752
H          13.25692246523517   -7.95282319024215   17.10324229473314
H          12.91771931935416   -8.38331553079662   18.84611403026312
