70
 SCF done       -129.590719069428          0.000208505125
C           8.51042977496288   -2.85707677335366   -0.61309682180501
O           7.42072328404023   -2.35958866520452   -1.25209120798315
C           7.07333366682104   -1.23086827657851   -0.59837555894093
C           7.92092787890833   -0.99407249673879    0.44710707201534
C           8.86104265969253   -2.06427199775795    0.43475210928308
C           9.98118192295005   -2.25264203847633    1.39335471496752
N           5.96789519180905   -0.58918856255696   -1.10720361841370
C           5.35829322946819    0.53195750932993   -0.65826710230119
S           5.95609554896183    1.42774362424079    0.69269614555545
C           4.62224653974203    2.53545878687833    0.53605297474012
N           4.56255755075778    3.59474109528781    1.43465934966516
O           3.63298033746059    4.37942549761118    1.33668812158499
O           5.45789389358282    3.66226542625771    2.26613810098442
C           3.77652037287447    2.21877826599598   -0.49308526739204
C           4.17791121117090    1.07205148873614   -1.20384411621075
C           3.49183867587658    0.52189109572461   -2.33527028866819
C           2.22341004096477    0.84842127646141   -2.69287084981249
C           1.55453795604676    0.32920541975142   -3.81778169175971
C           0.24335805269427    0.60098829045626   -4.10951032008664
C          -0.50996352402280    0.14162721075455   -5.21954818018376
C          -1.80525525728931    0.55913608742121   -5.23116799148899
C          -2.15830956518402    1.36679993788938   -4.12585704192874
S          -0.77427792105916    1.59817869815271   -3.07856793971798
C          -3.38695769792695    1.91333825391348   -3.81998640071223
C          -4.59300648424426    1.82187216420053   -4.55348979201080
C          -5.64986441089841    2.45153169536301   -3.97414638833065
C          -5.34140137623376    3.07972236339621   -2.73682790738791
S          -3.63710892725347    2.84555881985466   -2.35726336195359
C          -6.14024645812250    3.77168829574091   -1.87525159653156
N          -7.47283249988106    3.97328550151621   -2.07584594377165
C          -8.33208595469839    4.67796457003769   -1.29320821949560
S         -10.02557771628045    4.27879300968628   -1.39782106032071
C         -10.36446293948176    5.43809520362162   -0.15092052326952
N         -11.69127570691550    5.61095532526954    0.22790312924530
O         -11.93288205469182    6.41967352765106    1.11035708790036
O         -12.52497216961776    4.93055236592297   -0.35554837233904
C          -9.24206603076303    6.08238166374826    0.30214209126506
C          -8.06311856659979    5.67734493860601   -0.34770821936972
C          -6.77388958657322    6.28959956529918   -0.13370258613787
C          -6.41484235067467    6.93684594648935    0.98966356078627
C          -5.13924739039439    7.55469660139297    1.17084954518466
O          -4.20497269902072    7.50238874065539    0.18439073054013
C          -3.11886619957514    8.14504814546372    0.63179577932263
C          -3.31905159199641    8.62117065167089    1.89251510789166
C          -4.63164638934674    8.24317767130525    2.25845228503980
C          -5.31849109899919    8.53172999088832    3.54635705763395
H           8.92769247550327   -3.76337674767075   -1.00148080984569
H           7.90237020718203   -0.18276428801135    1.14228073087218
H          10.61055942073011   -1.36528098318550    1.41676540193438
H          10.58489042377712   -3.10964894442561    1.10907396517730
H           9.59264863811817   -2.41288885471565    2.39779602662367
H           5.54324108107110   -1.05793839177745   -1.89750313210083
H           2.91342982880494    2.81470718829282   -0.72468356386772
H           4.02293248248682   -0.20254151384968   -2.94026104864326
H           1.65969837015447    1.53645149456691   -2.07805379097441
H           2.09518822544650   -0.32332021959173   -4.49070613217201
H          -0.06579467353255   -0.48401373426522   -5.97379866207330
H          -2.51625039897227    0.30400931224455   -5.99662253580614
H          -4.64544626334514    1.29386044378630   -5.48873597275720
H          -6.63561710068768    2.47914535275064   -4.40549805784204
H          -5.72610457569007    4.16951268344597   -0.96377752309012
H          -7.89790780537336    3.44850535482860   -2.83019289545812
H          -9.29172175641910    6.84938960934764    1.05272216138216
H          -6.06892960272816    6.24862938111853   -0.95141720039584
H          -7.08048704904635    6.99663640745156    1.83737120889987
H          -2.27348618300336    8.19603174028881   -0.02556306066944
H          -2.62067350270761    9.17043741906242    2.49007094457326
H          -4.65101636716192    9.07177329313099    4.21208985175401
H          -5.62534600942532    7.60756206433230    4.03462396350637
H          -6.20920508626011    9.13676602078953    3.38042353567951
