77
 SCF done       -164.628192136503          0.000696035351
C           4.55100906805651   -0.99331222415134   -3.53917234179034
S           4.64400767470304   -2.47630903912221   -4.36889074335476
C           6.33176134162039   -2.56628136180730   -3.99466683841785
N           7.07014224222637   -3.67877907694973   -4.44600139456285
O           8.25130649644536   -3.71534974485104   -4.16696560340821
O           6.46610419977369   -4.51880005123782   -5.08277434593464
C           6.78362964487173   -1.49935576145474   -3.26829053635857
C           5.75023528349532   -0.57118921901076   -2.99466524490841
C           5.87535334958832    0.65731980519008   -2.25577170574607
C           7.02331307382892    1.11734274222564   -1.72097618357555
C           7.15074131419729    2.33355070000221   -0.98837139083129
C           6.18745813424210    3.26622367861402   -0.64826816826974
C           6.72009484836750    4.32863243331086    0.08192976268296
C           8.10384148591513    4.20663141521612    0.29746169405945
S           8.74050723326924    2.78485967637266   -0.39431960448909
C           8.54967967320715    5.33576630924297    1.03326935673189
C           7.44104120899871    6.15867501178478    1.29504517265678
C           6.25772078522323    5.56305058995576    0.69784187202720
C           4.99371085080657    6.07455619810808    0.68948704944985
C           3.92298430872460    5.41754023406150    0.04673007189035
N           3.05082415858820    4.87921110348141   -0.46688461894700
C           4.66931803442794    7.29548293624212    1.31540588731374
N           4.39874993341087    8.28979968488655    1.82029700179559
C           7.77458229873216    7.30904365630791    2.00639212602604
C           9.13248755966555    7.38803500546656    2.26485481236431
S           9.99930484820938    5.97890812854789    1.66215586423802
C           9.82282185309944    8.45524004634489    2.90346788370644
S          11.28660772603570    8.19368521296646    3.79027025692068
C          11.31096025071377    9.86554354175975    4.23666968843929
N          12.37247413283616   10.32170412524080    5.03392521364036
O          12.37581223050030   11.49581792845176    5.34941075085904
O          13.21247696426426    9.49901881621651    5.35061985369480
C          10.25993464782356   10.58458469943200    3.73033555194473
C           9.40309407723248    9.79426975504112    2.94462746904293
C           8.27307382464209   10.26012872125645    2.18839181857425
C           7.49226265297592   11.31732016575604    2.48388865343767
C           6.31138674289667   11.62556493193333    1.74561498444504
C           5.71579184297267   10.89007350453539    0.73605374691134
C           4.51102673378808   11.44907061080025    0.31756523989491
C           4.19016553292056   12.63358168835443    1.00057507288544
S           5.36542966150039   13.04194071978602    2.16705908309492
C           2.94984727057470   13.11340303112225    0.50595116126580
C           2.48659985654648   12.22888343834997   -0.48425570309541
C           3.44578416308427   11.14297052586253   -0.62274472166159
C           3.35111687701657   10.04874914412506   -1.43207058139109
C           4.32403211582409    9.02977244193022   -1.44072237473418
N           5.10244026590502    8.18606987074163   -1.44663727194196
C           2.25953753407463    9.85297596817580   -2.30607486083560
N           1.37869875152862    9.69713876705922   -3.02268208823585
C           1.26529593255786   12.62060302044847   -1.02791593014728
C           0.79541630243776   13.80105518972082   -0.47486212029029
S           1.88808148170002   14.42162837574292    0.75684075845523
C          -0.43350166453314   14.43945473830541   -0.79525303115838
S          -1.57548487130525   13.57452609231511   -1.78376758354818
C          -2.69289841217742   14.88460938620862   -1.64323157775379
N          -3.92914868381524   14.78512451927456   -2.29984113951534
O          -4.70406882202754   15.71547701746350   -2.18406578842124
O          -4.13306933162289   13.76837337552081   -2.93772787373282
C          -2.21939288575940   15.92039766699060   -0.88108933470650
C          -0.92412860639568   15.68528832845107   -0.39067865621719
C          -0.18828550418648   16.66146832603638    0.39512593039715
C          -0.75849041717137   17.54425727246410    1.20587462388555
H           3.61159318767780   -0.47813756470681   -3.48022119883035
H           7.80749000837820   -1.40842764645961   -2.95687094820479
H           4.96294978727211    1.22511797043756   -2.14483878921012
H           7.93701767462684    0.55171849213517   -1.83704900371959
H           5.15243334883660    3.17425636912585   -0.91951301951683
H           7.06310276681045    8.02833472242627    2.36698562504824
H          10.14455494616535   11.64001527388496    3.89627359143019
H           8.03692167581754    9.66790769731958    1.31644991838104
H           7.70451485037780   11.93771812074114    3.34303021925144
H           6.12710004187738    9.98236655641367    0.33808628949482
H           0.73208128634404   12.08806598840214   -1.79499461598102
H          -2.78250949740367   16.81968397387010   -0.71166681860452
H           0.88686047311050   16.65762138556926    0.27570480030365
H          -1.82215690783472   17.56652554668905    1.37095098228849
H          -0.17326291926751   18.26547931955679    1.74821391182759
