95
 SCF done       -171.588295198805          0.000726294225
N           3.08089951892128   16.78771776302062   -9.94694413487812
C           2.83985491007692   15.43293342749902  -10.22046227522937
C           3.19188761067269   14.81095099447860  -11.37905873508778
S           2.76780149357199   13.14805665558922  -11.39701439780881
C           2.13175055653077   13.26817108096599   -9.80681347341977
C           2.19060241351189   14.53755604575556   -9.30071201332669
N           1.69876776548973   14.92228755340919   -8.05765465785689
C           2.12011745156010   16.19342508972742   -7.49575441321567
C           3.63226292333520   16.35791866321163   -7.61179443486238
O           4.39391825552550   15.98498280980155   -6.76171116182062
C           4.06209776450509   17.01770797792645   -8.89752842668541
C           0.70607951924342   14.24874716321064   -7.39611226538621
C          -0.19744996133435   13.39961752969313   -7.91662384587432
N          -1.11710933850599   12.74725804875222   -7.11765514369644
C          -2.09797950862755   11.93787159362762   -7.54820902836804
S          -2.37608704657665   11.68965315955182   -9.24443169405516
C          -3.73418476461606   10.66585084722948   -8.85815907379192
N          -4.43111897787672   10.09710739048481   -9.91037752765039
O          -5.38883481009859    9.38207872487331   -9.64511648172310
O          -4.03708791389553   10.35410887908857  -11.04224677382173
C          -3.94445109927275   10.53538004985383   -7.50911074450821
C          -3.01730087132945   11.24470158273567   -6.73258358542440
C          -2.95625863144419   11.23890489525249   -5.29736414029431
C          -3.92409489867810   10.78758075290392   -4.47592082824546
C          -3.76896917433229   10.77101104051568   -3.05203054364897
C          -4.69499089825141   10.46895074193985   -2.12776703818772
C          -6.11620951149273   10.10018286152958   -2.39979569967406
C          -4.32046853007914   10.56627070473958   -0.66031984236803
N          -3.95571185965462   11.92139871403604   -0.31575424215438
C          -4.73396383363078   12.80031014740804    0.32445924962096
C          -4.45527628928226   14.13761573844375    0.37513016015497
C          -5.18796776087483   15.07706645588672    1.10562712377494
C          -4.89561068618642   16.42196150252978    1.11703523145220
C          -5.53018551024077   17.44727827199667    1.84813946045680
C          -4.99091742088367   18.68777939225306    1.65725332817526
C          -3.90923206208910   18.70529112148203    0.75309756468786
S          -3.58519911407986   17.10468215711672    0.15740729226234
C          -3.15326890165908   19.79586163294362    0.34042406506159
C          -3.24238663054742   21.12824584264650    0.77333941035023
C          -2.33318913655934   21.96026379146683    0.17624729727296
C          -1.49937691961117   21.32379188808839   -0.76206240034120
S          -1.88767621706214   19.62588010890908   -0.85935835108721
C          -0.50712314643697   21.93028790803982   -1.52197229014635
C           0.24080912626684   21.27726100730782   -2.48243789470134
C           1.23407487768384   21.88019474541467   -3.24739967058809
C           1.97776700282944   21.28009506517709   -4.31017047941626
C           1.83754844765850   20.00674865163975   -4.82968868383407
C           2.53511052457802   19.53613336310776   -5.95075624370671
N           3.03774353458656   19.08111893397749   -6.88144072672287
C           0.96860095697218   19.00196934589268   -4.37048515827757
N           0.30914235535145   18.10128202124452   -4.08979003363610
C           2.92361680334185   22.27534449608972   -4.81780387682595
C           2.74364116104101   23.47598621793960   -4.09218407624364
C           1.67279590714183   23.27475705545039   -3.08767068792670
O           1.26659279132811   24.11540694158252   -2.30639304564390
C           3.48395551561486   24.60539125509145   -4.33096753410557
C           4.45483074467182   24.54826704501527   -5.33896650376299
C           4.63341998915099   23.34278055287953   -6.05217780764436
C           3.88317721302233   22.19764780701862   -5.80706182362492
S           5.88651040009421   23.48814714954639   -7.24952951199315
C           6.14560661662900   25.14740091835874   -6.78127894430035
C           5.33949087387930   25.57110882453091   -5.78021986193897
Br          7.45598215214918   26.16335520613043   -7.66123592594375
H           3.33762732416089   17.28263794755014  -10.79390010489668
H           3.66018417152650   15.25016454908567  -12.23763491351774
H           1.75999113442742   12.38284510166422   -9.33550166030769
H           1.85137934743066   16.21642509085758   -6.43734101812566
H           1.62993629395091   17.02603035313323   -8.01189322672802
H           5.07516074287096   16.67622046608511   -9.15981079997686
H           4.10048712159182   18.09128430661035   -8.68858248173748
H           0.65729006836892   14.47614660328189   -6.33735136258274
H          -0.27142611466263   13.18316770042675   -8.96823254051235
H          -1.05938351023741   12.92248550178356   -6.12291727297954
H          -4.73420097519059    9.92037925384720   -7.11935800815794
H          -2.04410822124228   11.61993994241377   -4.85218142385064
H          -4.85318724047662   10.43400563834287   -4.89275036822912
H          -2.77472017471147   11.03425055351408   -2.70473503793122
H          -6.32033347139749   10.02041521042329   -3.46142201261251
H          -6.78375872013100   10.85251660351454   -1.97749767781773
H          -6.35149593534971    9.14569077708382   -1.92880277715037
H          -3.46421889979073    9.91627882595061   -0.44517202317093
H          -5.15615040400063   10.26007885852405   -0.02989765800874
H          -3.18400585981367   12.30751400273753   -0.84328845977143
H          -5.58984073569784   12.39120673486700    0.84439580871050
H          -3.60261871680168   14.50424777711932   -0.18221209705039
H          -6.02531552186584   14.73941642770516    1.70185487666616
H          -6.36218928973036   17.24193772274719    2.49882350707402
H          -5.34684085959868   19.58212542854731    2.13562549254615
H          -3.95772521299899   21.44548035223024    1.51088612245014
H          -2.24446022555084   23.01221431000879    0.38103291967833
H          -0.33000159554522   22.98195588789267   -1.34976057426453
H           0.02871682750466   20.22806001479490   -2.65460235466746
H           3.32257298156193   25.50642429556238   -3.76019027327661
H           4.06455120935112   21.30129687407961   -6.37569063764535
H           5.36460870952459   26.56353158352336   -5.36843398948537
