93
 SCF done       -161.845687358031          0.000829230916
C          -9.23138981317916   11.59947624221529    2.84068274336115
O          -9.78800401415080   12.81637097956156    2.83976978774866
C          -9.42351064536150   13.40473517274279    1.68393112325833
C          -8.63479866977955   12.58922358638779    0.93266346496247
C          -8.06786447772425   12.92662942005455   -0.40134076787049
C          -8.49938257926014   11.37787833798772    1.69711250080706
C          -7.80270840649264   10.14972606066831    1.42915282222306
C          -7.01052634758971    9.87570009700624    0.37386133877143
C          -6.35323943916734    8.62781074781047    0.12334171974325
C          -6.46558417385579    7.50071804276771    0.86235536747408
C          -5.79150228287763    6.28427446608756    0.55708351082910
O          -4.82351214733662    6.28705976428908   -0.39289921064876
C          -4.29327683375651    5.05033973678637   -0.43634001942332
C          -4.88373085986606    4.22222936140290    0.46471894759975
C          -4.57787206247431    2.78740541937055    0.71058972390847
C          -5.88644480854127    5.01000425460114    1.12214770457426
C          -6.76799568954699    4.49812808927525    2.12445643537839
C          -7.94943889555563    5.01895327174642    2.52420418924295
C          -8.74273581846970    4.43154748100376    3.54668539835906
C          -9.89587955837365    4.96705135480882    4.01081164390315
C         -10.68783443832257    4.39386482407036    5.04121382493930
S         -10.30171648741400    2.83377340820210    5.71154646416526
C         -11.64712802599064    2.90320364023224    6.80997290812990
C         -12.35933286112985    4.07983347414335    6.64006186555824
C         -11.81089436721953    4.91844428785336    5.65430567175119
C         -12.39155044446701    6.25872543076150    5.31758276356858
C         -13.29897443414845    6.75727201177870    6.44249633968903
C         -12.48078163780287    7.18451351644968    7.62715603120198
O         -11.29447136129457    7.10567877349007    7.74967690145413
C         -13.31751527136550    7.81203738182453    8.79077238143699
F         -14.41904066715581    8.44353360718237    8.35159213336055
F         -13.73215628479095    6.87479428579193    9.65715797705044
F         -12.60440097246699    8.70240024655901    9.47897475513089
C         -14.29735954728280    5.65505880028534    6.83274899509322
C         -13.57607795410833    4.44895462366234    7.43030180396250
C         -11.91324408905772    1.83765287814043    7.71955116230046
O         -12.98465991878522    1.94004493197938    8.54522778243142
C         -13.05146420874983    0.80041450797184    9.25898533054604
C         -12.05926145121433   -0.06458257547036    8.91634005622375
C         -11.80841255941338   -1.40074813925117    9.52193644390224
C         -11.29281035178798    0.60234428667209    7.90742771369290
C         -10.10779073897763    0.13400591724310    7.24686439293454
C          -9.81268245920793   -1.15059235590094    6.97181072546757
C          -8.61754032365501   -1.53778917401790    6.29010261565244
C          -8.33986717810608   -2.81335876279708    5.95215338798001
C          -7.19828536540812   -3.28992201648778    5.21554179528172
C          -6.41032936829886   -2.57018831668596    4.34045123161030
O          -6.55216517376532   -1.28979480868923    3.94130461621708
S          -5.12465524440209   -3.47697845361079    3.58493474528277
C          -5.61908768527392   -4.89276968473869    4.45767291255365
C          -6.73174447001511   -4.63633343406667    5.26065152777387
N          -7.08080887010087   -5.77404708855338    5.93391070117904
C          -6.20662103935117   -6.76291692291861    5.56344191607754
C          -5.28148880655228   -6.24119035263899    4.64690194765722
S          -4.15251462073776   -7.44353604419980    4.14385547507423
C          -4.93684554375807   -8.61278317134154    5.16057629901749
C          -6.00056262860164   -8.12652798621404    5.85263175008038
H          -9.40713475523991   10.97435054226573    3.69430826773488
H          -9.78391924734869   14.39859733348682    1.50462174135389
H          -8.42007539534741   13.90823947956980   -0.71068338477308
H          -8.37689537676822   12.19447924310826   -1.14613678535032
H          -6.97913085876496   12.94579969317746   -0.36436478718818
H          -7.95620612240622    9.39302516970817    2.18755935300828
H          -6.83775464868472   10.63979508742457   -0.36784173823191
H          -5.72754695276752    8.58968321671059   -0.75856019879483
H          -7.07849228530732    7.48339844016576    1.74863139336632
H          -3.50463729754265    4.88335640983820   -1.14377914196463
H          -3.77808537422616    2.45675352417279    0.05336602664670
H          -5.45846625893331    2.17230106896923    0.52991263993699
H          -4.26671508365769    2.63455025861216    1.74342357480100
H          -6.44756930935633    3.56726482144982    2.57644986592948
H          -8.34475143012989    5.90740881786425    2.05394293816944
H          -8.38378873072443    3.50909262152151    3.98624916026610
H         -10.25399550131368    5.89811699684548    3.59186770988630
H         -12.97489891731560    6.18860342218170    4.39442143137658
H         -11.58577018936387    6.97676833222941    5.15300861203507
H         -13.86210770650194    7.63697511853969    6.10726155846468
H         -14.82556642705298    5.35627795751840    5.92526278212845
H         -15.03678631693520    6.03135568082186    7.54043298199916
H         -14.26238876775603    3.60096922294143    7.46770045312938
H         -13.27826850409757    4.65697834150232    8.46290417578434
H         -13.84155696828632    0.72536225111363    9.97995306715419
H         -12.29445769120689   -1.46497354402819   10.49259096715286
H         -10.73987308371740   -1.56517268576903    9.64465316278440
H         -12.20832790520968   -2.19324061600775    8.88936294237555
H          -9.40933539032199    0.90041881029232    6.93670532015810
H         -10.50969481871992   -1.93828743824111    7.21708776803699
H          -7.91714388270946   -0.73938370091050    6.08035559588264
H          -9.03097026328730   -3.58780566073662    6.26463313887837
H          -7.41680575557455   -0.95733368035014    4.22197027196655
H          -7.84682849828881   -5.87103861889843    6.57723037465993
H          -4.54581461907332   -9.61029814552997    5.17965010042093
H          -6.59746529296097   -8.71267120491617    6.52746489118859
