124
 SCF done       -195.725844323752          0.000829113118
C         -14.02001144788040   14.69664403541298   -2.13936351120468
C         -14.06040117208791   13.35440656395694   -1.78478684745381
C         -12.97580978893986   12.55665707323636   -2.07892553918218
C         -11.85252923458244   13.09629523674137   -2.72475281615213
C         -11.81565900281467   14.43577633563060   -3.07679044691930
C         -12.91062995595152   15.22994161162296   -2.77765635373993
C         -10.87592581012188   12.03877665433329   -2.90633102270203
C         -11.40162656141794   10.84886763888410   -2.37528262739949
C         -12.77792671123066   11.08553042800546   -1.79901310085421
C         -13.84123887896851   10.22773120927603   -2.50917127960976
C         -13.87380387321598   10.45563640019203   -4.01562136041293
C         -12.80649109536677   10.79456309463934   -0.28659024508642
C         -11.77777417215445   11.60660744732672    0.49102179810960
C         -10.68387255644143    9.67958513501665   -2.41801236942566
C          -9.40616693496373    9.67279353062908   -2.99778821122951
C          -8.89219675089555   10.87000967187612   -3.51290245017620
C          -9.61251120758683   12.04763954548080   -3.47601250185899
C          -8.59708681597766    8.47893418882061   -3.08592109827419
C          -8.97399180061259    7.23698278239612   -2.74348429106682
N          -8.14272289302899    6.15037125161037   -2.86365716672134
C          -8.45846948608351    4.87259579620221   -2.56946293604829
S         -10.02060170247445    4.45835203849200   -1.94202829439722
C          -9.53358086272978    2.78877602195181   -1.87090712131566
N         -10.46263973647833    1.86047810126082   -1.43570108504406
O         -10.12925221204954    0.68112058192491   -1.41807603351261
O         -11.56418217643805    2.27901756820285   -1.10367896376692
C          -8.24759038347065    2.58155651363018   -2.29711323520525
C          -7.60268767148788    3.76161504063676   -2.70803027848350
C          -6.27203262004016    3.83147647035253   -3.22929259392966
C          -5.39731951555176    2.79247400638550   -3.21010560073955
C          -4.11210559630775    2.81069459658733   -3.77965623074719
C          -3.26478794196564    1.73340134075380   -3.73915316837678
C          -1.98931999044837    1.60884202699935   -4.34333431328052
C          -1.40087689793078    0.39414827046109   -4.16570602396192
C          -2.16575244952078   -0.50621432638633   -3.39040715071246
S          -3.67084854129789    0.24116482533940   -2.90233743499199
C          -1.85548028211955   -1.80080648392186   -3.03020232681629
C          -0.74141835330901   -2.57085919217489   -3.43652250329079
C          -0.73148587769585   -3.83978295556370   -2.94836577432209
C          -1.83131714262370   -4.14162732738905   -2.10078841651757
S          -2.88865999285797   -2.73871194497737   -1.97117592143996
C          -2.13929589619428   -5.29698736300783   -1.44310298702698
N          -1.42799131061223   -6.44583051347336   -1.59072262353561
C          -1.66002115018660   -7.66955796698874   -1.04315432470514
S          -0.29844254358139   -8.76461333255068   -1.03723756537059
C          -1.23958687015838   -9.92487569310699   -0.15811336156190
N          -0.63632620278779  -11.13592846128164    0.16341406435657
O          -1.29188840000015  -11.95549257679267    0.78646686375225
O           0.52078307689538  -11.28843172414522   -0.20621447905425
C          -2.51085166391172   -9.48402439750909    0.10367974247220
C          -2.79003173392672   -8.20726359978324   -0.41682816824649
C          -4.13193188006840   -7.66691718371471   -0.29325433056941
C          -4.78971281179426   -6.87959924090776   -1.15415816897070
C          -6.15109309464131   -6.41614972105758   -0.92834851258264
C          -6.51871380765104   -5.13125695671807   -1.35295644372159
C          -7.78190856636326   -4.65924729050343   -1.07733291319134
C          -8.72138151992290   -5.49911536592028   -0.45170676405539
C          -8.37633347893699   -6.78184012810900   -0.05656475253567
C          -7.08762459445707   -7.22318054503486   -0.27889689580206
C          -9.98778338268992   -4.80434709547036   -0.37010004201250
C          -9.83152178033180   -3.52592885930689   -0.92578696901666
C          -8.39943186542193   -3.30918854748430   -1.37384268833450
C          -8.31546319500537   -2.93836741721055   -2.86139404844566
C          -9.00564406975724   -3.96263360430302   -3.75484121825373
C          -7.81456539394924   -2.18754997060966   -0.48421417013259
C          -6.33312239196168   -1.88701566125491   -0.67510328425160
C         -10.88942789350723   -2.64911277872165   -0.98081436622627
C         -12.13986800492934   -3.05138507730116   -0.49522346218703
C         -12.28282616063813   -4.33625424866145    0.03937327801610
C         -11.21954306138700   -5.21349427336941    0.11647239640767
C         -13.30803497826362   -2.18108723632120   -0.52927225445866
C         -13.31138765721328   -0.87898890896630   -0.79014130214077
H         -14.86336804154863   15.33322655999336   -1.91498208290850
H         -14.93014456959469   12.94997353929188   -1.28762512021984
H         -10.95282921828377   14.85346069017651   -3.57412302817926
H         -12.90165093691925   16.27681772080536   -3.04403417603219
H         -14.81982912541495   10.46371304665959   -2.08609879181225
H         -13.63552155521508    9.17463910240041   -2.30583383909398
H         -14.10125454294910   11.49503416254219   -4.24154027025172
H         -14.63598318206564    9.82872472052569   -4.47240787613988
H         -12.91257212985544   10.21057629328317   -4.46219288086139
H         -12.62074727190013    9.72967220101518   -0.13110718228371
H         -13.80565423482233   11.01788301132655    0.09297230137169
H         -10.77125367558165   11.38818007930412    0.14077921709313
H         -11.83387475565947   11.36593234031216    1.55016867347106
H         -11.95878325684831   12.67224657425628    0.36963729468218
H         -11.09779398521017    8.77423590897844   -2.00226883662376
H          -7.90587874887388   10.86569805731955   -3.95543861636791
H          -9.19568712369802   12.95651694637517   -3.88358371344857
H          -7.59772442304639    8.62093430037747   -3.48092552516463
H          -9.95420476113527    7.00583650252631   -2.35757391983846
H          -7.20847307219674    6.32382140052880   -3.21367892255617
H          -7.81209111193831    1.60000662993856   -2.31980607351644
H          -5.95396263249721    4.76372533968556   -3.67890887146667
H          -5.68811448127998    1.86696819294119   -2.73280557472971
H          -3.77755075229242    3.69971450512757   -4.29750583234916
H          -1.55396617943372    2.42024750756562   -4.89968732792771
H          -0.43731367733582    0.12555812466591   -4.56036021026697
H           0.01309523489516   -2.17064361151801   -4.08956513267165
H           0.04327753559867   -4.55399009702599   -3.16779593558026
H          -2.98330625205343   -5.33346023647094   -0.77592015702115
H          -0.57304292698195   -6.37560070831676   -2.12888474389869
H          -3.22640245611864  -10.08682865045758    0.63369812869545
H          -4.65502641841058   -8.01898122748066    0.58630243291961
H          -4.31302085009777   -6.52391557584947   -2.05871017735199
H          -5.79442261636195   -4.52242905466250   -1.87566843517704
H          -9.10312579951799   -7.42751591847564    0.41340613301723
H          -6.80940878229831   -8.22497403921093    0.01312596724597
H          -7.26704055617741   -2.85913612739705   -3.15374595111208
H          -8.78269847049037   -1.96145008887321   -2.99892412630839
H          -8.55353610928320   -4.94486990219557   -3.63197811252794
H          -8.91885515031382   -3.67105417502856   -4.79950904217727
H         -10.06137341113837   -4.03874283736511   -3.50495075443326
H          -7.98234196497065   -2.46760065853041    0.55919882505710
H          -8.39598663142128   -1.28389300662840   -0.67955114068027
H          -5.72144903711641   -2.74419746495643   -0.40679253464191
H          -6.04708518115253   -1.05798411797038   -0.03101709535096
H          -6.10691212074132   -1.60557878751429   -1.70018379899479
H         -10.76020905787077   -1.66297180031987   -1.39637081548712
H         -13.25163593278620   -4.64241395622385    0.40971388116025
H         -11.34813352814707   -6.19796174452596    0.54226119567463
H         -14.24495134911614   -2.67594398767573   -0.30004207694345
H         -12.41247087526587   -0.32845309721725   -0.99934882484582
H         -14.22430146651313   -0.30796765053590   -0.78533992340309
