106
 SCF done       -194.122244917221          0.000662177847
C          14.58387750405040   -9.31439000791402   -6.92753837560475
S          13.15765769354186   -9.67443372903099   -6.05550626700257
C          12.60324591558262   -8.02617911533258   -6.17429257224810
C          13.51740794260346   -7.25688090563306   -6.83649326252755
C          14.65710096139233   -7.99662662609447   -7.28222543345178
C          15.73613194122815   -7.43797984540550   -7.99646358443557
N          16.61980713369238   -6.99424509040231   -8.57384341714288
C          13.41312706186104   -5.78428405796542   -7.06567544301084
F          12.22178342669632   -5.27220248863610   -6.72647384913989
F          14.33010191595966   -5.10803758311353   -6.34904045242065
F          13.61433909706601   -5.45211556669432   -8.35036138887160
C          11.38297850551550   -7.60163646806284   -5.49133429499425
C          11.49507147814330   -7.09404400737721   -4.23378760859376
S          10.00096093209672   -6.65279107447628   -3.51816355326644
C           9.16619519238640   -7.16827745963838   -4.94857103592023
C          10.01823655013955   -7.65507207119376   -5.94998319851711
C           9.46370808573316   -8.05668639149161   -7.19093505156445
C          10.40884958594357   -8.51065502798081   -8.27437262798393
C          10.77972524358134   -7.36998325001668   -9.22410787097632
C           8.09149105075875   -7.99627602912205   -7.39711704524367
C           7.50536339768781   -8.28775552115323   -8.75455858426298
C           6.95232156025290   -7.01457794720160   -9.39954276239250
C           7.22544138496503   -7.58939005427225   -6.34723198713522
C           5.78114022491665   -7.48180215855436   -6.27993736934750
C           5.37267766893047   -6.94394677545391   -5.09048269238934
S           6.63317108376850   -6.57407635505988   -3.99016325964340
C           7.79565028543617   -7.14242470546146   -5.14455427931037
C           4.79017008333098   -7.91087008165527   -7.23897364004682
C           3.58392169939236   -7.31468974602638   -7.38549874959644
C           2.57180377802109   -7.77924335163378   -8.25536564606929
C           1.36008136427327   -7.16699019918618   -8.40492954862960
C           0.27250434304355   -7.59025189756621   -9.21668164517900
C          -0.82631459210559   -6.79687621476189   -9.14334650460524
C          -0.67852948195865   -5.68382686663636   -8.27676803720762
S           0.91910509743031   -5.68929766220062   -7.55451747827532
C          -1.59540516325856   -4.70486666734995   -7.98358455672541
C          -2.93796339947360   -4.59814741228485   -8.43799402224537
C          -3.60968189764927   -3.53064735655449   -7.94874108138713
C          -2.83691798241046   -2.70121255640139   -7.07599477938999
S          -1.20552166176610   -3.36691707060168   -6.91722827794892
C          -3.22326136832126   -1.59113340167907   -6.41567332407860
C          -2.28238961216418   -0.80227422408060   -5.61225098328245
C          -1.40431919925592    0.02245949766843   -6.23694283763973
S          -0.35681403311768    0.88694627905646   -5.17765570363063
C          -1.09787180559166    0.10435245708729   -3.81922142429081
C          -2.11966652350724   -0.78517236138096   -4.18061258516099
C          -2.79390574420500   -1.50781234155352   -3.16880312290355
C          -3.85765673980793   -2.48495004584743   -3.59636057131680
C          -3.28078213790222   -3.89521513440992   -3.73913834112714
C          -2.44295397070755   -1.35027380177628   -1.83370962886262
C          -3.18058250400482   -2.11539979007578   -0.76503379643715
C          -4.13846143724567   -1.21038248688476    0.01186165538990
C          -1.41506403505727   -0.43951573070011   -1.46979974545984
C          -0.88210708024907   -0.04852700269281   -0.17740789155302
C           0.08735112502499    0.91172167281116   -0.29794343984467
S           0.44516784337080    1.37881900172159   -1.90152681110584
C          -0.76821311353775    0.28143522356406   -2.48656704143895
C          -1.22471368403262   -0.56316219110795    1.12405123509942
C          -1.09788120514935    0.13099254205562    2.27399495015892
C          -1.39831771897856   -0.38449561820894    3.56951089371698
S          -1.10156308182405    0.62016222900994    4.95866405722680
C          -1.66208532376664   -0.58587110770228    6.03789170677845
C          -2.06291101469945   -1.70605872144277    5.37886117665775
C          -1.92064610641800   -1.60980347161580    3.96366071189876
C          -2.30153234715854   -2.65752541141642    3.11065304755725
N          -2.62932366613919   -3.52992042470535    2.44045365147272
C          -2.60248611560927   -2.92538695024745    6.05165652230847
F          -2.63647476310581   -2.78978195876521    7.38677435762844
F          -3.85721311797760   -3.21109904534796    5.66662088798550
F          -1.86630031739468   -4.01962949662823    5.79892038142281
H          15.30175301004042  -10.08237969068939   -7.13689541356088
H          12.40430022547134   -6.95251069809241   -3.68144198771628
H           9.98181641807614   -9.34032530448072   -8.83942966458756
H          11.31690658963644   -8.89157077779318   -7.81378459301051
H          11.10729636508627   -6.50011611069816   -8.66182160379324
H           9.92846429908406   -7.07288596477727   -9.82934996806411
H          11.58400540388206   -7.67675744446625   -9.88950899050784
H           6.71666292860958   -9.03420714818662   -8.66869201293114
H           8.25732262001529   -8.70374545215501   -9.41937467486156
H           6.13251870796479   -6.60217890380325   -8.81815525353429
H           6.58763975134102   -7.23173402351639  -10.40117774039023
H           7.73200796308927   -6.25955146899349   -9.47026724056616
H           4.35930064283820   -6.78692964466321   -4.77722482125970
H           5.00447833686093   -8.78386922754196   -7.83585423580377
H           3.35929734930437   -6.41523168896186   -6.82679178587544
H           2.75587739882126   -8.68014005087794   -8.82592941910770
H           0.34493876259172   -8.47685988385535   -9.82216976642290
H          -1.73786974159481   -6.97168200025385   -9.68666179220647
H          -3.36178081518264   -5.32580358928181   -9.10738865956290
H          -4.63407186160182   -3.29180552441842   -8.17421594387709
H          -4.22633304687930   -1.20872680160352   -6.55432483630331
H          -1.31818239617386    0.18201550662249   -7.29439454323950
H          -4.25181958618785   -2.17642488890364   -4.56378157520397
H          -4.69236109146696   -2.48819708135238   -2.89526666531154
H          -4.04503418179282   -4.57972700550482   -4.10073971345954
H          -2.90434325705496   -4.26471127936519   -2.78862851690311
H          -2.45611542372761   -3.89131119726289   -4.44715539549990
H          -2.47279870328584   -2.59069643303755   -0.08781421125780
H          -3.75760529718780   -2.92536888607387   -1.20092415380932
H          -3.61642702878752   -0.36357545058102    0.45127693004519
H          -4.61412407877043   -1.77460771265198    0.81044222691974
H          -4.90984789439518   -0.82494686563037   -0.65191833463680
H           0.66385895501719    1.33957260074917    0.49872594462090
H          -1.57654742996575   -1.57749937061105    1.18210967405116
H          -0.76346051269879    1.15923850073517    2.26025008275882
H          -1.66947959429252   -0.41319982720061    7.09557190526418
