112
 SCF done       -192.085211725311          0.000507061804
N           2.85371371910610    1.92895141325931   -1.23552368727214
C           2.83128435643398    1.46119003520376   -2.60834051141666
C           2.74398684502981   -0.11083315112053   -2.61765826963670
N           1.55322559944161   -0.58174905963359   -3.29943793868525
C           1.45476651518296   -0.03309744259852   -4.64280787520823
C           1.61505875238704    1.52279868982109   -4.66190318085991
C           0.42294176819111    2.14853685694010   -5.38159476697869
S          -0.23909008591485    0.87923907170173   -6.49637970189043
C           0.11374265652455   -0.40200055371921   -5.26363381690449
N           1.72734831170152    2.05959649979240   -3.31731228907183
N           2.69546371774707   -0.55043720400424   -1.23185758113516
S           3.50929398028205    0.71301948755157   -0.27648632933397
N           3.14583536509252   -1.79940022111377   -0.90232885948936
C           2.20597582589862   -2.89358149045112   -1.03138268884490
C           2.89155244375026   -4.05270954693803   -1.85697952828298
N           3.34565338112905   -5.11494698034790   -0.99282678920396
C           2.24471245157080   -5.73230739447134   -0.27683086887601
C           1.25756604808624   -4.66935596705337    0.30833049069411
C           0.87600450333596   -5.06305390148493    1.73606549731217
S           1.30749329758591   -6.81703042761746    1.95105390905204
C           2.74546630126020   -6.60000942854366    0.86795532989614
N           1.83196951925034   -3.33663347458377    0.29819781858240
N           4.02876648619438   -3.50487762341474   -2.55927690652968
S           4.69816647493313   -2.34145601955450   -1.46963485773464
C           3.92381222896906   -3.18978829370748   -3.90178520468048
S           2.43367473792777   -3.41589451853519   -4.78225736912551
C           3.19531079599244   -2.83401421578509   -6.25213031950601
C           4.49093549276648   -2.46719517245526   -6.03565920094809
C           4.91544753037252   -2.68912779058601   -4.69990250979788
C           6.33282660027300   -2.43918920734292   -4.29777503555315
C           6.92795745854804   -1.29327077039966   -5.14607645075059
C           6.19654022751214   -0.04648994950851   -4.75553988556363
O           5.06026656439797    0.25053146398702   -5.00278275820521
C           7.04876972009068    0.89714661724759   -3.85482792403400
F           7.49243384078500    0.25608187185365   -2.76290214825785
F           8.13339360682593    1.33587087480298   -4.51486317313057
F           6.36583032103526    1.96446952976483   -3.44868557315757
C           6.78830310500385   -1.65056599094295   -6.63340401151642
C           5.33547950439559   -1.80251767393647   -7.07439743947389
N           2.52045930445549   -2.70386966422637   -7.44341266000798
C           1.33590159550118   -3.50598425371874   -7.64547719456432
C           0.59487551960167   -2.93565168230023   -8.89735552181658
N           0.40269432751642   -3.93596554037776   -9.92110735010152
C          -0.18605536338370   -5.15126497493198   -9.39138384628189
C           0.63768926102659   -5.73106302466682   -8.19024124795512
C           1.12144930399291   -7.12995989998574   -8.55247372387111
S          -0.14903152523257   -7.81954813191164   -9.64941172041181
C          -0.28912214013744   -6.21253009113374  -10.48308370609273
N           1.75631251523945   -4.87525337456549   -7.83700385056872
N           1.45236661037813   -1.89801934050315   -9.43632860968965
S           2.19585718772765   -1.10207032179333   -8.03748247137354
N           0.87768380892066   -1.12219531234601  -10.40331751930999
C          -0.07928183041677   -0.10364965238065  -10.00066759277559
C           0.62915237827474    1.31472135738896  -10.08998062501932
N          -0.05874128847907    2.18413748031715  -11.01808190338458
C          -1.47156195243958    2.29729242192550  -10.71688697393775
C          -2.16643548738175    0.89593163975641  -10.61997026436932
C          -3.32174387404154    0.84251821037540  -11.61426171852544
S          -3.90193800718145    2.55198928007868  -11.80348158429654
C          -2.18213716928285    3.13115701589361  -11.77816526879395
N          -1.23319298811123   -0.18850915177464  -10.86327690598333
N           1.98659487345773    1.12944095997441  -10.55084468482095
S           2.02068500507558   -0.33463720676024  -11.43030391520483
H           1.92985393188056    2.21054270400120   -0.91861821540709
H           3.75985584063456    1.77913173802097   -3.09758303350688
H           3.61373505251619   -0.52858030916058   -3.15042172996161
H           0.73503818925898   -0.32687423407899   -2.74818658324480
H           2.26955692326498   -0.47509876906723   -5.22697299682283
H           2.54359902131573    1.77744369202170   -5.18163355094993
H           0.69638480060070    3.02025880049776   -5.96868256756278
H          -0.36232685178942    2.42581003141972   -4.67566667009047
H           0.13038919104954   -1.37267448516092   -5.75100707957505
H          -0.68607626242921   -0.39144380210612   -4.51988680037314
H           0.86024689662381    1.89437599691407   -2.80640643502318
H           1.30597647424471   -2.54249268537660   -1.55197025193911
H           2.18416215784433   -4.48453358690214   -2.57235085324420
H           4.04743166671921   -4.74826654137182   -0.35307205816998
H           1.70774421252948   -6.36228018947387   -0.99692128675253
H           0.36159587404167   -4.62447745929884   -0.32068676101839
H          -0.18454443503149   -4.94392594435484    1.93754442906387
H           1.44364777098890   -4.47720784801528    2.46057132358319
H           3.09630808220557   -7.57302711428659    0.53732275231289
H           3.53593145073698   -6.10089284960673    1.43281618685596
H           2.64636514732253   -3.28588674065658    0.90475494962970
H           6.92952442694375   -3.33606352888031   -4.48684254632252
H           6.41034435399070   -2.21438591945912   -3.23279839211319
H           7.98779972742418   -1.18399461109609   -4.89942037273371
H           7.31889218314112   -2.59266244124709   -6.78375318693052
H           7.27752553210538   -0.88817364170005   -7.24190121360797
H           5.28447475797916   -2.36479401477622   -8.00908445732842
H           4.89858701080475   -0.81833536475476   -7.27541163542774
H           0.66718221268437   -3.49044133183476   -6.76485595001644
H          -0.40162833189523   -2.55491809040216   -8.61421104485954
H           1.29009029215927   -4.12167304320268  -10.38108083232763
H          -1.18989500965015   -4.88352672539489   -9.04265998374462
H          -0.00527598040169   -5.78631121718500   -7.30412179741793
H           1.23398812831240   -7.77443138832256   -7.68581759217979
H           2.06606547485916   -7.09242847838226   -9.09891841736348
H          -1.23210702921111   -6.17317194869378  -11.01972678242704
H           0.53260127877646   -6.12134572311980  -11.19582831761559
H           2.47579493732116   -4.90185368304947   -8.55621074688198
H          -0.40749438093310   -0.28903083662618   -8.97104008822347
H           0.62316703481897    1.79717885147845   -9.10639787630707
H           0.09457651966672    1.84505246653249  -11.96502139990911
H          -1.54463409005141    2.79817028149454   -9.74469769438772
H          -2.54717396167794    0.75633059770798   -9.60183966828256
H          -4.14618987029697    0.22465033965013  -11.27122058781495
H          -2.98476091624984    0.48338706259887  -12.58863036773459
H          -2.16890834392233    4.19421076179674  -11.55733185522851
H          -1.74769661739396    2.96380897630057  -12.76566927449331
H          -0.92312343205458   -0.19591181145693  -11.83265614762515
H           2.66132892206788    1.13007837075803   -9.79390127359706
