80
 SCF done       -139.407063692742          0.000457602249
C           8.59216958666755   -0.69256985410428   -1.90854764875203
C           7.36381541296737   -0.86784131656499   -2.37949110854925
C           6.17170682207950   -1.06110643544388   -1.56113486201236
C           6.25232474972186   -1.60383611359615   -0.29424233977606
C           5.11093885158233   -1.80007008737501    0.48988533196309
C           5.01534167513825   -2.37069127642592    1.80725687178356
C           6.16076428834432   -2.82214195898922    2.57358635956983
S           7.52939044384437   -1.77884215463759    2.78878753783491
C           8.36715075924003   -2.98346080031475    3.73283988028844
C           9.65798640510391   -2.63885782648390    4.23042928390442
C          10.34764205852720   -3.25927956652266    5.21091632327546
C          11.65098073416843   -2.87074319691545    5.63610372837698
C          12.42570863840653   -3.50157049884643    6.58112872797938
C          13.67952278252816   -2.90640439636566    6.79969669396601
C          14.68275978115386   -3.51839196220171    7.72879857922685
C          14.22778645147390   -3.43470792846609    9.18595995774236
C          13.86645644781242   -1.79234726863237    6.00835304281095
C          15.00084339664425   -0.90651231974612    5.89425102102625
C          15.73719202834616   -0.40333668317572    6.95548517402441
F          15.34802904822848   -0.67429900827278    8.22237899304457
C          16.85426959075857    0.42184794722081    6.83065405973604
C          17.33289010889684    0.82744686831720    5.59475782151210
C          18.49920304914273    1.64726259518193    5.41315525093210
S          18.58213207158948    2.70878123627910    4.02998085336256
C          20.09344600308461    3.33921165844756    4.53904158874540
C          20.55539380271262    2.75253508166637    5.70439529929273
C          19.63307806877676    1.74958552718012    6.19581192539567
C          19.97874884216240    0.92777765619622    7.30799187930009
C          21.10085408451961    1.08681458471008    8.03524105346697
S          22.30017599887981    2.30304749276369    7.77402307389392
C          21.74732539938023    3.07022897714402    6.34485730267912
C          16.56405084387628    0.42189754646589    4.47380736600468
N          16.78352359153294    0.74521053137782    3.20230738784779
S          15.66210422878953    0.03894756270885    2.28398205723807
N          14.85215250839429   -0.71527502434611    3.45274415061397
C          15.41997810987612   -0.43541805159582    4.62346948419811
S          12.49790221602293   -1.50745150353307    4.96932375990070
C           7.61164985636332   -4.13531970502602    3.83024576106442
C           6.35666425715448   -4.03387877006578    3.19039532568195
C           5.37333815778682   -5.16307927192117    3.11849138163255
C           5.78875176707552   -6.37002153558347    3.96242777413729
O           5.36577620387926   -6.13049572787266    5.28912098305508
C           7.29975674653795   -6.59611866091535    3.87348648532946
C           8.04958790608635   -5.40988179910574    4.47686220982047
C           3.72854959834424   -2.42501156912502    2.24137062000612
S           2.57502213756320   -1.81703101782289    1.10888585617740
C           3.84714961943922   -1.45741474177376   -0.01648019819330
C           3.74473424450472   -0.91535053556702   -1.29021935104228
S           2.29911698040186   -0.41885104167367   -2.11472452787182
C           3.23412991177865    0.06621221552918   -3.48602843365264
C           4.55990017301075   -0.13600525978835   -3.33249439525222
C           4.89583253756424   -0.71093644820402   -2.07176350478252
H           9.43216100018671   -0.56082417439720   -2.56877712146916
H           8.80611525836108   -0.65664563779977   -0.85385731694675
H           7.20104284208722   -0.86069342715485   -3.44889425289536
H           7.21001314016702   -1.90531111902295    0.09820421113649
H          10.10603975299581   -1.76383844056343    3.77412049888202
H           9.92577641238040   -4.09574007672800    5.74652509495432
H          12.10249740699409   -4.38959817946936    7.09621930745125
H          15.65269531407128   -3.03433066439887    7.61496732896522
H          14.80240054032647   -4.57089833172077    7.45347524431133
H          14.12825898077067   -2.39736765041823    9.49143317515227
H          14.95487319918102   -3.91896569776125    9.83352493866999
H          13.26656296526688   -3.92642630447110    9.31426289384532
H          17.30691728864084    0.77872903288336    7.74176108650881
H          20.57947292410430    4.09979708841262    3.96345809297343
H          19.32573436661215    0.10483590341744    7.55592643401153
H          21.34053264057829    0.44199417538943    8.86424347296793
H          22.39885681547156    3.84157857261086    5.97498560164453
H           5.25986589225170   -5.47086355466451    2.07531093790925
H           4.39729330796945   -4.83510837998615    3.47629599618209
H           5.26729373735562   -7.26227582767395    3.57307718305280
H           5.67823577169296   -6.84833931055783    5.85016836695049
H           7.57278468422351   -6.71550844929512    2.82368768550217
H           7.57332012214488   -7.51312208146577    4.40240393794232
H           9.12448527639863   -5.54680652616076    4.34292299450242
H           7.83944750901407   -5.35985977070952    5.55018560693156
H           3.37467358008480   -2.77040123283547    3.19268935012741
H           2.72339513700200    0.47995310507116   -4.33346904703334
H           5.28104515583282    0.12004079527983   -4.08721355018317
