99
 SCF done       -181.360919570327          0.000581950385
C          -9.95991515145357    5.33665492853826   -1.02084686475329
C         -10.74479580232536    6.18629243917606   -1.78461779771917
C         -10.45929509650983    6.29061581810544   -3.13121341383904
C          -9.41783468230396    5.55509075895009   -3.70885075401592
C          -9.36782843356106    5.89651441009650   -5.15596979269792
O          -8.63144051064929    5.49443106525226   -6.01696791621676
N         -10.39065291412284    6.81579024013765   -5.35062517506664
C         -11.09243445051925    7.11041049275038   -4.19256972362538
O         -12.02068850668444    7.87525210745785   -4.11774451836857
C         -10.66014719331709    7.44231235347864   -6.62756683340415
C          -9.86615431188169    8.73422293331036   -6.78544289005194
C          -8.63607418195849    4.70283533107094   -2.96522497114292
C          -8.91439583250990    4.60126334171333   -1.59074425792297
C          -8.10151416218868    3.74767095325939   -0.75811481098104
O          -8.32781205818849    3.70684330431318    0.58421369749303
C          -7.04301087582272    2.91670039619477   -1.04413018321814
C          -6.18109295821472    2.38973371463789   -2.11168895412332
O          -6.17932748698654    2.59286039534333   -3.29775039083593
N          -5.29932974190425    1.55064290168251   -1.44188295051615
C          -5.47938377532264    1.46855605296711   -0.05940703076203
O          -4.81188027388568    0.80166045600251    0.68676833240977
C          -6.61451706281001    2.35602462079280    0.18914427033981
C          -7.42985609734858    2.87186056515450    1.17339432081046
C          -7.40826528800604    2.67631862645929    2.58393681643046
C          -8.29603086259177    3.24169383923501    3.42589887619040
C          -8.21307576240052    3.16015924821432    4.86456292710350
C          -6.98076661522797    3.10499277465530    5.45725269645278
S          -6.99835926607576    3.18609606951801    7.16491455389137
C          -8.73348771293506    3.26554698564158    7.13785638347957
C          -9.27869418004062    3.22739691377820    5.84489449226474
C         -10.69112922142392    3.22982519440535    5.70365751091206
C         -11.29002891807673    3.04630680958676    4.33228640897753
C         -11.02026341787215    1.63886277847265    3.79493812179674
C         -11.50672317502757    3.34128856629800    6.82461099148614
C         -13.00588809037096    3.44151890660830    6.70708059369659
C         -13.67594190756482    2.06647983826812    6.65156117328743
C         -10.94095961163903    3.38793860413079    8.12209661464323
C         -11.56497504540392    3.52441983271905    9.41962273447285
C         -10.63809919035088    3.62707601992606   10.41670111131712
S          -9.00547625537486    3.51201754381748    9.89757535534399
C          -9.54558834086850    3.36142046467926    8.25445798810594
C         -12.97485473710173    3.50256645983892    9.74314643884941
C         -13.53347436880801    4.32935344812547   10.65756528837346
C         -14.88739662789279    4.33592897504161   11.07831285066466
C         -15.88502438097545    3.43877405888410   10.80945674242331
C         -17.22015146373928    3.54537910065863   11.29014291321443
C         -18.03449932163460    2.51475956196820   10.94530784137193
C         -17.39835806839741    1.51611969623411   10.16954569450168
S         -15.73083286564643    1.95683219579496    9.87394707842345
C         -17.93057157947244    0.33540103886099    9.70101831817684
C         -19.24851485123294   -0.15224075533590    9.86649288508641
C         -19.45386005414742   -1.38018065142362    9.32285651697061
C         -18.30934998437360   -1.94231399185929    8.69588536590182
S         -16.96247129270243   -0.82347308458100    8.80413667131969
C         -18.24376844549342   -3.17821723078203    8.11454923365767
C         -17.12450962258421   -3.78212869602946    7.51348757708632
S         -15.54192238275770   -3.04404316641855    7.33195105375206
C         -14.85054546063916   -4.41633588718477    6.56091266720050
C         -15.78048110714846   -5.42128938681721    6.43515542038215
C         -17.05180633825066   -5.05342926634779    6.97060861294485
O         -17.94253153650591   -6.05895152916753    6.83757285133665
C         -17.25637228476807   -7.06161330950467    6.22499695433020
N         -17.95191428040881   -8.26364850490020    5.95651198678539
O         -17.31810979712772   -9.14425464503120    5.40491443986075
O         -19.11438569107982   -8.33684293415604    6.29220085409114
C         -15.95147878615925   -6.74817014595726    5.95319858544407
H         -10.14831844148991    5.23481794563440    0.03682305632784
H         -11.55075801216176    6.75364320995270   -1.34610305463029
H         -11.73256907724883    7.64636661418510   -6.67298361681399
H         -10.38274996985681    6.72744119365198   -7.40577279476723
H         -10.13730411246256    9.43981663895106   -6.00343442674862
H         -10.08122756902947    9.18256386582872   -7.75112824213029
H          -8.79985553084402    8.52911215892740   -6.72426382931417
H          -7.83658251783324    4.13734706311687   -3.41902175888318
H          -4.57415252434454    1.03836370379723   -1.92383141665253
H          -6.62058083514717    2.02671039381712    2.93471989996380
H          -9.08354123810491    3.84309455558062    2.99883698050268
H          -6.03429327111717    3.08138383840009    4.95353359211149
H         -12.36639259059956    3.19150314555228    4.36049742325491
H         -10.89239836127512    3.79294989033924    3.64536565618134
H         -11.43051131165828    0.89496039980482    4.47417205809647
H          -9.95545324010737    1.45033504684262    3.68930077010978
H         -11.48939873582534    1.51454572941564    2.82132926441707
H         -13.28329254573219    4.01888753505706    5.82408965930958
H         -13.38168693689659    3.99605923867942    7.56752706863963
H         -13.43633744453334    1.55592590026472    5.72278479986951
H         -14.75646690262952    2.16966709822345    6.71838452295344
H         -13.33993402404364    1.43803952194159    7.47304807981042
H         -10.84073372066014    3.70883234773364   11.46684719678581
H         -13.57652072457114    2.75477651865515    9.25355514875597
H         -12.91136664230332    5.10147622155666   11.09274206791671
H         -15.17665715851089    5.16187127361231   11.71649109760621
H         -17.52740523882334    4.38757694673993   11.88514787051577
H         -19.06697495311634    2.43555980737911   11.23426121717620
H         -20.00149700792910    0.41427382622339   10.38418306499857
H         -20.38689947619531   -1.91419458830039    9.35394194661791
H         -19.14076572451855   -3.78346942271635    8.12051984408129
H         -13.82492995880772   -4.39920132508403    6.25739885316118
H         -15.23669445123069   -7.38781624014318    5.47873641694313
