115
 SCF done       -193.598602158175          0.000277768701
C          -0.47587130958726   -2.26705540185009   -6.60535821462580
S          -1.45580290919419   -2.54127966775363   -5.22578060098525
C          -0.46749457923637   -3.89464058247223   -4.72955474280983
C           0.54560877062637   -4.11105053084625   -5.63875567206384
C           0.54564543338759   -3.16005061124794   -6.69762420934593
S           1.70040361969440   -3.09171602741568   -8.03664815035504
C           3.23573925903724   -2.73255345754256   -7.08878202729706
C           4.43455383436740   -2.83303065199224   -8.00891903564846
S           1.67774157868871   -5.46275372676319   -5.53963270365715
C           1.20415411491014   -6.37371601638593   -7.06532340525974
C           2.05818678349102   -7.61791799660580   -7.19077495865994
C          -0.83218271762630   -4.58789895974316   -3.53571107018904
C          -0.03517178481782   -5.38974142543919   -2.79980833001367
C          -0.50139548491331   -6.08361759552218   -1.64204499523852
C           0.27769915288939   -6.88798470246730   -0.89572914901841
C          -0.20398729584811   -7.56459708673576    0.29418333510028
C          -1.04661876032797   -6.90995680123085    1.14373962436902
S          -1.52011700160593   -7.80826364626297    2.52900508518140
C          -0.57642703102903   -9.15265412227725    1.96798735335515
C           0.08970277119578   -8.90259304630030    0.75890176527012
C           0.84131066257385   -9.94925272870340    0.17071696467798
C           1.47784493348392   -9.70639818082705   -1.17337972317087
C           2.90494745080421   -9.16934242109676   -1.03487477577265
C           0.97871390489267  -11.17232627703924    0.81579162557197
C           1.80569051229613  -12.27436505774448    0.20508699475529
C           0.92434185856595  -13.32042935039375   -0.48011130589153
C           0.30069261807102  -11.41479250828909    2.03703546583937
C           0.18008095102271  -12.61181442095780    2.84210159462521
C          -0.66848009030408  -12.42944861619209    3.89726481469947
S          -1.32883111627324  -10.85343213363849    4.02900956050476
C          -0.48766289799339  -10.38943618713111    2.58209008270036
C           0.82777153203545  -13.89477620697783    2.68081762101138
C           0.20526185753855  -15.06245475819401    2.93470700865969
C           0.87932786992011  -16.31557528893054    2.89167554217420
O           0.18096603110463  -17.45344635321208    3.15143799268735
C           2.20042748844063  -16.65497087827928    2.68493772150890
C           3.52076193756566  -16.12903629271552    2.34927098537993
O           3.88586258663850  -15.00413607951287    2.09816571382698
N           4.33577775416467  -17.25250634407927    2.35773403363537
C           3.68793366685373  -18.45946360357292    2.65332562874804
O           4.23363225687337  -19.53257309938480    2.70198564253078
C           2.30076004589901  -18.06109733018253    2.85894460234132
C           1.02807842299440  -18.52568394208686    3.14377757294708
C           0.54309465964590  -19.82541955866150    3.41316045206107
C          -0.78597175087695  -20.13293589805057    3.38919332042801
C          -1.37284538398464  -21.37220673671570    3.70600129031761
C          -0.84268416399541  -22.39094916605574    4.45890962472356
C          -1.51488036011561  -23.60226200365485    4.77565837024536
C          -0.86512367829668  -24.39132882227191    5.67105774602152
C           0.36215043471437  -23.85099117951806    6.12355193517552
S           0.68891280229669  -22.33140635329431    5.31019650658174
C           1.19510562457745  -24.35190141120143    7.09928865038171
C           1.01467946869920  -25.53356142927714    7.86593136173989
C           1.95124649353806  -25.72734316291326    8.82569483213442
C           2.94982207838124  -24.71182848024995    8.88218569101170
S           2.63133396095860  -23.50847041250731    7.62718010923063
C           3.96043622947760  -24.51612290308544    9.76637256625452
C           4.39570698403383  -25.42151945799715   10.80893362826565
C           4.83867737677522  -24.97875077379190   12.04831435451294
O           4.77556105920821  -23.70485966159263   12.51015257094770
C           3.75262032354612  -22.81991089636128   12.10260522309781
C           5.42291956119270  -25.87909297423070   13.01168164377358
O           5.79311030596160  -25.26948951446048   14.16116594167819
C           6.38497726485651  -26.04959536615041   15.17159128384037
C           5.56212768688931  -27.21688552089416   12.75364202970235
C           5.10710246235579  -27.70112128983560   11.51710243416667
C           4.51295484589705  -26.81663918859088   10.55124610027404
N           4.18306039363674  -27.45488841570383    9.43343142371595
S           4.56510322552399  -29.01405115195967    9.58796013500555
N           5.17340568247044  -28.95571064188124   11.08066167921823
H          -0.69952847909674   -1.46466164258276   -7.27894648693337
H           3.29552744046344   -3.45726824242357   -6.27816773271848
H           3.12812626458498   -1.72739888805927   -6.67951643665109
H           4.51460949671779   -3.83707030308864   -8.41951327940295
H           5.34298822508730   -2.60819860886028   -7.45404100532336
H           4.34429563630130   -2.12953523719827   -8.83383479623492
H           1.34708991225104   -5.70415584917984   -7.91206647373988
H           0.14727282912187   -6.62208275582651   -6.96393621321456
H           3.11160680858167   -7.35215853580931   -7.24431712743641
H           1.78789433357230   -8.15905208750438   -8.09501768108108
H           1.91032583829328   -8.27157536937672   -6.33377651104846
H          -1.84797370504985   -4.41072988553883   -3.20341445751948
H           0.99868415962771   -5.53108085444437   -3.07749046831785
H          -1.54789155598188   -5.96694567237830   -1.39092350489738
H           1.31679866139229   -7.00314795383991   -1.16383246440761
H          -1.39031995747637   -5.89863775516440    1.04566446135319
H           1.49070723594195  -10.62508994772570   -1.75936964284196
H           0.86635011041635   -8.99132316672680   -1.72479863143895
H           3.30850905731089   -8.90975303973340   -2.01145415900793
H           3.55526940615706   -9.91227440904212   -0.57903090727194
H           2.92551805118594   -8.28539575144337   -0.40125951237800
H           2.41094684541016  -12.74902350120069    0.97430438724640
H           2.50353227931334  -11.87169876952549   -0.52463484705501
H           0.21844028927907  -13.75429278958118    0.22335003719026
H           1.54064353040827  -14.11968580460661   -0.88481833593629
H           0.36074493356290  -12.86829887347294   -1.29415828986116
H          -0.90150596888024  -13.15019066852086    4.65666713469955
H           1.86888735105759  -13.91841699130845    2.39786586723407
H          -0.84537214983725  -15.10066993121816    3.18542762010321
H           5.32470173270506  -17.20772007702445    2.15848592345827
H           1.30012123977779  -20.57515947401649    3.58271550639498
H          -1.46695363674757  -19.35663858789925    3.06277199047289
H          -2.39208488968584  -21.52292399940606    3.37252314494023
H          -2.46888805539407  -23.83841309756028    4.33768801834830
H          -1.24095018361342  -25.33111401147743    6.03370500727521
H           0.18466506630856  -26.19471754750123    7.69147322158268
H           1.95629098543166  -26.55385110527964    9.51045708171184
H           4.52806970876455  -23.60084404249609    9.67217755502870
H           2.88930654686918  -23.35068479164336   11.69784842816590
H           4.12190983516969  -22.10559978877038   11.36290964288135
H           3.45420362598244  -22.27082805352362   12.99832412437467
H           5.70358579557850  -26.82904890106779   15.52736399749630
H           6.60166809408117  -25.35908761156819   15.98472982070614
H           7.31597892858725  -26.51087636250405   14.82807914789256
H           5.99814805751415  -27.90813677505133   13.45342467906719
