64
 SCF done       -110.949762676590          0.000532409561
C          -3.42776302445158    5.09141841561156    1.16955898384568
C          -2.57782606202495    4.18892289067447    1.64378068080621
C          -1.13092823676069    4.34400136818629    1.73353040859078
C          -0.38351914646922    3.46579484017694    2.52653109516981
N           0.92555476132446    3.53944655214588    2.67651908284238
C           1.58530598569277    4.48744756374611    2.04307966196356
C           0.96159920882025    5.42295095891443    1.20975206739748
C           1.70498624968462    6.44838406566685    0.51060949795015
C           3.04163779577436    6.76744123142277    0.48291668433960
C           3.18336416117487    7.85926575298219   -0.40588129538796
C           4.46715888926638    8.49596951745448   -0.77462271910160
C           4.75652953054867    8.51668418171830   -2.25617312188635
O           5.24890709703493    8.89576351584953    0.05162985121177
C           1.90222413549098    8.15022207412451   -0.84578087669655
C           1.36262334129494    9.19975633172577   -1.65927781970704
C           1.88261361950851   10.37151056171849   -2.14666775541384
C           0.83171357866631   11.03010922217721   -2.83963746218427
C           0.92746051180971   12.31451179622184   -3.53538007812461
C           2.30262414062319   12.93467252835692   -3.54603050349641
O          -0.01944143271012   12.85180613342422   -4.07013242629686
C          -0.27689517532231   10.18919057089224   -2.71380505147226
C          -1.63473254862233   10.23912589839872   -3.15479977685671
C          -2.39901384890766   11.18253685021549   -3.80112485803912
C          -3.69568167115588   10.63290568756316   -3.91990780244979
C          -4.88173590871627   11.25076613866288   -4.52287749599029
C          -4.67155237555342   12.64246610133621   -5.05850791125287
O          -5.95247954621600   10.68400338581582   -4.58070599423460
C          -3.63196000465144    9.36626077106343   -3.33009415644307
C          -4.64198788728057    8.37010154812407   -3.17619508784640
C          -4.39455995501553    7.17354616289406   -2.60816187019388
C          -5.34341784480995    6.10305860502607   -2.41465623608046
C          -4.90722371754350    4.87442471658198   -1.90420697263148
C          -5.81544091247329    3.85013522076376   -1.71819434482051
C          -7.14314840405085    4.08047180794839   -2.05047921183853
N          -7.57638825067906    5.23531249343511   -2.53042789127569
C          -6.71112305740553    6.21162453849697   -2.70592319741175
O          -2.39009116183019    9.14332792863718   -2.87241120984360
O           0.05868557118632    9.09673296713890   -2.00660923792822
O           1.02186194145812    7.29630948636563   -0.28887404847625
C          -0.42282392269079    5.33599062243052    1.06171428575212
H          -4.48821100062668    4.90776824619555    1.14629108750586
H          -3.10953168606913    6.05177712238487    0.80009355720289
H          -2.95574228724066    3.25062379327381    2.03020376709627
H          -0.86999652161264    2.66745563580521    3.07249882919948
H           2.65449157509778    4.50249778901121    2.19908244319183
H           3.83941801509692    6.28629326523327    1.00904827687554
H           5.45552381795576    9.31480459910120   -2.49239316644213
H           3.84941736024313    8.60506129177655   -2.84480788615710
H           5.23363373768911    7.56827093837637   -2.50380725560532
H           2.88064367841482   10.72595344683943   -1.99923431891046
H           3.01444473416514   12.25846118432156   -4.01305200283134
H           2.62854733284045   13.13140151547644   -2.52749220141010
H           2.27152604805907   13.86828708066504   -4.10108719512407
H          -2.04810647380697   12.13548571505661   -4.13572564026909
H          -4.34362450115454   13.30034401433938   -4.25678238947418
H          -5.60045709320483   13.01608880834689   -5.48084357032666
H          -3.89936197943796   12.63116447168727   -5.82427769346260
H          -5.61171253747480    8.64643120732363   -3.55889908610552
H          -3.38713006482952    6.96760956791564   -2.26557523994097
H          -3.86324730492994    4.73207006412183   -1.65947656845002
H          -5.50224516049430    2.89468294970907   -1.32594507170043
H          -7.89556030977541    3.31282595893408   -1.92833835752742
H          -7.12650444635630    7.13114689527444   -3.09412087042872
H          -0.92841135656249    6.03759343477002    0.41617466661709
