122
 SCF done       -180.077400483174          0.000568425964
C          -0.62620444823877   -1.18961630955222   -3.93246248045198
C           0.21184378640956   -2.28029401455031   -3.80357914940577
C           0.89860483601808   -2.49387723511859   -2.60303681241683
C           0.66718002702830   -1.56098710150558   -1.58395547891432
N          -0.13044606123442   -0.51957871958819   -1.70228108429779
C          -0.76169520655848   -0.33267204138128   -2.85002825931571
C           1.77935848682507   -3.63622167888061   -2.47636778523820
C           2.58944053251698   -3.89800173418185   -1.43869352029507
C           3.47736569223710   -5.03337154248208   -1.29885815290425
C           4.29672523922307   -5.09806918755397   -0.16098135752368
C           5.15883283206375   -6.15368686540414    0.00606186241468
C           5.22177520192760   -7.17879621452816   -0.95091456344315
C           4.41201562913970   -7.13376982839478   -2.07619595261300
C           3.55156519942483   -6.06725213330365   -2.24025650121739
C           6.22076575241584   -8.13851705373212   -0.53215822942550
C           6.77936453265707   -7.70469420044699    0.68271540016712
C           6.09690215919626   -6.44181954904066    1.16013168081625
C           5.21311193286209   -6.70551437894485    2.40251781298399
C           5.93998865672997   -7.20360828379436    3.64508372878137
C           7.08920270647695   -5.29610983660722    1.40389015385882
C           7.87925294986509   -4.93899447208800    0.15008868185329
C           7.81173088760769   -8.40236932276676    1.26155680942882
C           8.27309167736402   -9.58644148851081    0.66869635191598
C           7.67882774299271  -10.02104269678166   -0.52168212126498
C           6.67273447966036   -9.30209241894377   -1.13539491799341
C           9.32066873136814  -10.39692258807393    1.25921496570463
C          10.06822938025087  -10.07244568586814    2.32236363879221
C          11.09591493003280  -10.94625114018715    2.87743249527521
C          11.30200606361554  -11.16177328035570    4.25019133385388
N          10.62655205538779  -10.68480149120786    5.35568485230480
C           9.47019385720112   -9.82667081473592    5.32927749670044
C           9.82600565622128   -8.33993666641555    5.29134845554467
C          11.15647236997807  -11.27114754085801    6.48764234770091
C          12.19931549801702  -12.14845651933441    6.10764431529701
C          12.30129891382626  -12.06788896330574    4.68130937654205
C          13.12427660057083  -12.72682496535783    3.77917030131496
C          12.93538898000568  -12.49488698830204    2.43262548081249
C          11.93526393427823  -11.63463204156148    2.00222791593930
C          12.87004354947636  -12.92229905645124    7.04435396246949
C          12.47851263460168  -12.83757306650493    8.36362874534719
C          11.45546981491818  -11.97584641505893    8.74052848103566
C          10.78987335172845  -11.15918615258633    7.83275888231751
C           9.79922206991891  -10.21332912092904    8.37115144854479
C          10.07757780201193   -8.90772406483143    8.54061515037857
C           9.19802770934412   -7.95415505328659    9.11645082400675
C           9.48118071592453   -6.62158150044666    9.19452888402660
C           8.69367538700747   -5.59633543691155    9.78365560851748
C           9.24017031146347   -4.35376772176269    9.70749650235815
C          10.48845719751105   -4.31013985671911    9.04402555580390
S          10.95179597728390   -5.91802204726359    8.52289449137334
C          11.28703495444366   -3.21485052815492    8.79409934780839
C          11.07089022789192   -1.86694581297647    9.16263353592489
C          12.05655830643893   -1.02117594597424    8.75996899750818
C          13.11550882865840   -1.63744345539238    8.04097644449455
S          12.79259263949022   -3.36265562846620    7.91310854544881
C          14.20308503744641   -0.98386979866473    7.52775789365690
C          15.28900044580618   -1.49940903618599    6.78418213739467
C          16.34259017813045   -0.72368729704721    6.29105446763214
C          17.23857999900838   -1.56142650360689    5.58134218270340
C          18.40858655960584   -1.29706975871932    4.90403402137077
C          19.06244901402603   -2.37415439467651    4.28464136491089
C          20.22820699446040   -2.44092495332379    3.53299223171302
C          20.45026588809062   -3.79254975055993    3.12733994026633
C          19.41816560375273   -4.56528614548930    3.63137094415439
C          18.52606382127581   -3.72013439413748    4.36038378557097
C          17.36373035083343   -3.98839195234461    5.03485261899106
C          16.70229611684915   -2.90767906203307    5.65343594995168
C          15.52773372251636   -2.85654080267697    6.38203763586858
C          21.57691180620857   -4.20864469194767    2.32576139824088
C          21.82878991074902   -5.45432559847096    1.93299039755048
H          -1.16311783766243   -1.00623759074295   -4.85066806373127
H           0.34453424071898   -2.96947287350870   -4.62674145300505
H           1.14334468143282   -1.65994867304787   -0.61784503488432
H          -1.40181405837762    0.53841191828054   -2.89654964374964
H           1.76027619346471   -4.30726395416208   -3.32560776373476
H           2.61573231672572   -3.20617881785913   -0.60638808436061
H           4.24522593898713   -4.30563849971891    0.57288678692631
H           4.45300119152678   -7.92047961877299   -2.81502506430269
H           2.92159859479036   -6.03683355636790   -3.11566581033000
H           4.45535113688439   -7.44264522755874    2.12319477254780
H           4.69343566447090   -5.77507686425046    2.64319922191502
H           6.38432013587587   -8.17964485053329    3.46850536349805
H           5.22926539946577   -7.30002225139225    4.46359510081261
H           6.71652490579136   -6.50848078046523    3.95503947194978
H           7.78642717586450   -5.58556415707470    2.19154957078220
H           6.53821574178996   -4.41859039128760    1.74962997318044
H           8.44128279464049   -5.80022230314098   -0.20488695711766
H           8.57929872739447   -4.13420850358900    0.36339533738021
H           7.21229643304569   -4.61451069212950   -0.64556048625675
H           8.26939559603411   -8.04285558207274    2.16930062708620
H           8.03252684406628  -10.93611228912993   -0.97592983617193
H           6.24555229788105   -9.64208151632961   -2.06727141014976
H           9.46848296725212  -11.36418152751029    0.79467009155300
H           9.93899783495243   -9.11025964428760    2.79075509165701
H           8.87889657507625  -10.03075369932120    6.22661038220103
H           8.86823033501128  -10.09492376350986    4.45489605694140
H          10.23595969841831   -8.01982065496025    6.24394763044051
H           8.93240969573309   -7.75397193051266    5.08963443467131
H          10.56931991451480   -8.13405662584440    4.52490731568145
H          13.88634720124724  -13.40557871127473    4.12999772453694
H          13.56191157667029  -12.98620429118530    1.70317230072391
H          11.81111811025704  -11.46486152878169    0.94281549693594
H          13.66735765608069  -13.58216477177213    6.73868460069328
H          12.96853724015414  -13.43656780889387    9.11650735249806
H          11.17514263003351  -11.91219689457067    9.78238661732016
H           8.86406883536885  -10.62378648059885    8.73487242842960
H          11.04774791962524   -8.53896325745298    8.22760514513566
H           8.25416365522020   -8.29984800098721    9.51630255043492
H           7.75028277461168   -5.81991689405513   10.25031262240900
H           8.78217697233457   -3.46565734178388   10.10570440468383
H          10.19946947560096   -1.56306544298109    9.71475216806594
H          12.06204900265760    0.03771941373032    8.95247300334785
H          14.23211095389889    0.08450181548953    7.70938130068794
H          16.45486943192200    0.33686284515003    6.42413601709938
H          18.81488396638755   -0.29705678196206    4.84336230658201
H          20.87157879200352   -1.61460496667239    3.28608499938423
H          19.28803167290316   -5.62382864676855    3.50613786209492
H          16.95472239695102   -4.98714905109336    5.09616558584050
H          14.89688935411222   -3.69547745396593    6.60846078228706
H          22.25289409847689   -3.41230670188342    2.03819576176529
H          21.18617312319201   -6.27715981426031    2.19513117948393
H          22.68985290209393   -5.69352231521969    1.33335869940260
