67
 SCF done       -106.983686153568          0.000845273810
C           5.09727019316945    2.67278370550741   -2.26752010448658
C           4.78296706665616    1.32768949670496   -2.29156042884988
C           3.66715570170144    0.86968506375709   -1.58195851869175
C           2.93340406038042    1.84027008051765   -0.88460408389175
N           3.22968034777630    3.12266067704904   -0.85980249443702
C           4.28973122079133    3.53332879231177   -1.53662756724878
C           3.23794339067451   -0.50901697122239   -1.53453147459526
C           3.87956408568415   -1.55697204323368   -2.08432933533831
C           3.42916366620230   -2.91066376383519   -2.02905538214684
S           4.39318198020142   -4.15406425481895   -2.77588106898704
C           3.24485641716428   -5.38030411771421   -2.31675237559222
C           2.18906190511497   -4.83081975340785   -1.62050299849179
C           2.29375547410052   -3.44930767577535   -1.46055584885514
C           3.44139959213998   -6.71159269590349   -2.64815108621527
C           3.63540759076996   -7.86982104017833   -2.95429907886294
C           3.81384245392976   -9.21157340213405   -3.28531364445720
C           4.92975909056689   -9.67754665691460   -3.87679542195089
C           5.18289778222860  -11.05500423933192   -4.23788578731608
C           4.21563273145065  -12.05939263501229   -4.20167860668063
C           4.54969483598035  -13.36742513882212   -4.55075087760413
C           5.88254937540423  -13.60307778396052   -4.91764198892440
N           6.80728915760591  -12.66529752225677   -4.96787769272469
C           6.47105681299030  -11.43266525199138   -4.64451149644882
C           3.60655493987261  -14.46484720634177   -4.54957451009247
C           2.26706126378065  -14.34159747747930   -4.53854290134209
C           1.34428828265415  -15.43186785768174   -4.54640684822723
S          -0.35670518178327  -15.09971814262113   -4.71828702212266
C          -0.73951369712607  -16.79697021298735   -4.63929556393685
C           0.40219577289263  -17.55295746257987   -4.48104444405118
C           1.56784076527237  -16.78747894316418   -4.43298056431262
C          -2.04798536134460  -17.24370752494353   -4.74247621407869
C          -3.19903677652869  -17.61203758720326   -4.85314528444443
C          -4.50821370355000  -18.07153163575932   -4.98951928954286
C          -5.50421958643876  -17.29582040634142   -5.45549284584899
C          -6.87731123201705  -17.70996282118238   -5.64395448356665
C          -7.73859389446558  -16.92068585245514   -6.40855150536173
C          -9.05696379323612  -17.31501248352025   -6.61684680974996
C          -9.45789220781680  -18.51048041116096   -6.01017521064289
N          -8.66565803633137  -19.26004662977337   -5.26765642809434
C          -7.41775588854098  -18.87723321515838   -5.08793580657435
C         -10.01210594161145  -16.55958988812142   -7.41743542195755
C          -9.72560474035926  -15.54872508924074   -8.22798412143262
H           5.95201341034652    3.05002810969533   -2.80796100584576
H           5.39402106729062    0.64184156304113   -2.85919584506402
H           2.05734916583013    1.55483368855801   -0.31458374227138
H           4.49409892041911    4.59462806223491   -1.48999667221404
H           2.31621024343594   -0.67999857426560   -0.99467893524025
H           4.80992288629551   -1.40764314436413   -2.61514889463886
H           1.37419679272085   -5.42495065675085   -1.24621654484563
H           1.55781141461028   -2.85952533277819   -0.94485644005016
H           2.99360431958086   -9.86831445861411   -3.02412154455758
H           5.73161752494328   -8.98248385768723   -4.09172286944372
H           3.20653137410461  -11.82862417461535   -3.89590150758255
H           6.20816854267665  -14.59735023399067   -5.19616697239581
H           7.26697246336966  -10.70059609686433   -4.69689760636420
H           4.04854210347224  -15.45089282678270   -4.59556383510037
H           1.81351019890481  -13.35939367089458   -4.54917028876441
H           0.37701050837556  -18.62577571901220   -4.40724822347892
H           2.54732296167952  -17.21279010160108   -4.30929729672456
H          -4.67697767200206  -19.10475058312643   -4.71514561960368
H          -5.27419696404529  -16.27861164634461   -5.74899948666711
H          -7.36873399023209  -16.00032723751053   -6.83748693907255
H         -10.46942316844669  -18.87755313981037   -6.13049537245436
H          -6.82661578276305  -19.52411133533116   -4.45406045739395
H         -11.03709419152768  -16.89886067860795   -7.33207731552737
H          -8.72299117063959  -15.18246900440178   -8.36995054836843
H         -10.49306687440470  -15.05031097174112   -8.79451339820153
