57
 SCF done       -133.897098189787          0.000570371029
O          -3.11032507701623    0.57666093494367    0.72150660564105
C          -2.14258822371399   -0.09388081166128    0.96736873170571
C          -1.69557635802829   -1.36073243529634    0.38777135210599
C          -0.54105766363956   -1.74899953632195    0.98655414312278
C           0.32962665390780   -2.86108522456632    0.88156896281015
S           1.49836398117139   -3.05887507610943    2.14683753779782
C           2.09676802009718   -4.53442492979068    1.49126638500031
C           3.22167135557762   -5.17622452895328    2.08910287726777
S           4.56795524473291   -5.67344557722005    1.12241109528994
C           5.52960909264438   -6.08535670094983    2.49106069120892
C           6.86392168628453   -6.56109680372065    2.30583516038070
S           7.19436184831287   -7.76099646178458    1.09958868458274
C           8.86151134430859   -7.82228293477152    1.51858906034414
N           9.74867584861635   -8.64009539458482    0.82936645452843
C          10.88134004135590   -8.17221306100045    0.14901967931905
O          11.18568846785784   -7.02141855150713    0.02143317355854
C          11.53874157987960   -9.39534086583422   -0.38907818596138
C          10.80644715155153  -10.46082522099008   -0.07680801298493
C           9.61273779491295  -10.02430341012782    0.69902169311685
O           8.70097191113421  -10.67170967075028    1.13106537672566
C           9.17259839487930   -6.94389405799485    2.54255170002128
C          10.41722537717754   -6.72498122502054    3.18337388672423
F          11.46338547214963   -7.50733612509845    2.85045984510859
C          10.55959868386140   -5.76410883115473    4.13506255738355
C           9.45968174027186   -4.95726085636803    4.49192666730906
C           8.23711945519815   -5.16988493700419    3.93095692089439
F           7.20804257460408   -4.36946925777228    4.26896026112142
C           8.03013511120707   -6.19185211974141    2.97368655173144
C           4.81239807674888   -5.89892440722075    3.67558443804666
C           5.17807088121376   -6.25206815479693    4.99418317163898
F           6.36401521325644   -6.85062307856427    5.21288280996723
C           4.33587899432921   -6.04700849134892    6.04679875396931
C           3.05720398115798   -5.50812981033890    5.82742793942753
C           2.65128486632076   -5.19594653184066    4.56299585503990
F           1.38698716947999   -4.76943452849680    4.37516990687853
C           3.50342509640554   -5.36080576161027    3.44793758913663
C           1.43434347988839   -4.86530494945514    0.29767313960499
C           1.58371523685583   -6.01916939979191   -0.49959071700224
F           2.44597994505977   -6.98371852841859   -0.12076231399297
C           0.85752973625800   -6.20482793205454   -1.64111287071399
C          -0.06132568094181   -5.22611533824414   -2.03885280756719
C          -0.26695721639307   -4.11690138808931   -1.26537249889718
F          -1.15776023438846   -3.20982672912018   -1.70430979551203
C           0.43094097804833   -3.90527884277555   -0.05799626548803
C          -0.20604869387358   -0.70589681906986    2.01962407219109
O           0.74758806022547   -0.70843363577760    2.76183247401878
N          -1.18516189682103    0.23353383975812    1.94218215148927
H          -2.25941886722335   -1.84880972560667   -0.38007458130078
H          12.45775501649860   -9.34276680551983   -0.94231574740442
H          10.98036616073946  -11.49496888306598   -0.30916734602279
H          11.51602391128125   -5.61395541901701    4.60791972976367
H           9.58279246751277   -4.16883163467021    5.21609226725350
H           4.64470931462709   -6.32777246191692    7.04013935007133
H           2.37806138813776   -5.36858382903568    6.65238036402872
H           0.99785592444569   -7.09831194702058   -2.22638862805633
H          -0.62179144723416   -5.34195761993336   -2.95205533803092
H          -1.23067337096016    1.06050248418819    2.51777504161692
