102
 SCF done       -193.230393299170          0.000206459258
C           4.76950265793602   22.14880610615510  -12.75035124357242
S           6.03116777538860   21.41865131335605  -13.65692711064346
C           6.27281325458807   20.24282778169977  -12.42966860889927
C           5.42955096118450   20.40419166856166  -11.38185676761115
C           4.55103905729010   21.51059186157978  -11.55914285365407
N           3.58182678200474   21.92165605756069  -10.66377884432192
C           3.29401987902472   21.37024661341863   -9.46417309728147
C           2.32105896737755   21.83057177563840   -8.64356797108053
C           2.02647476194316   21.24637584377038   -7.38736742185998
O           2.72579112947844   20.16862848522193   -6.92955101560553
C           1.07831080734288   21.58379110402156   -6.44177027275444
C           0.00010857996778   22.51003888874743   -6.12533283660552
O          -0.46259462455176   23.44212859480453   -6.73598722638133
N          -0.44287660025544   22.08210655535026   -4.86992003296629
C           0.22950531880961   20.98204249179820   -4.34351799992450
O          -0.01022013285242   20.46505521985548   -3.27969144054931
C           1.21932047600773   20.66307403373850   -5.36864305950708
C           2.24436274503238   19.80432482924316   -5.70153361365520
C           2.78862330069586   18.70955268447717   -4.98221825820489
C           3.79045277773041   17.93655233584555   -5.46738551019458
C           4.42130734430221   16.82542090582131   -4.85165630753031
S           5.47604903940596   15.86626172773331   -5.85559612016228
C           5.83667634270048   14.78234523587379   -4.54910931528289
C           5.16485519982855   15.16450202892179   -3.39701023461583
C           4.37979068619741   16.31644654773558   -3.55998141829839
C           3.61127591172996   16.93702494187763   -2.43369540471672
C           4.03910588577788   16.38387464904067   -1.06985617222965
C           5.31868071973699   17.06700879818412   -0.59886072494153
F           6.29671759231782   17.12092801686074   -1.51226499062888
F           5.08041454193893   18.34011080896995   -0.23931369383655
F           5.84726490619881   16.46535300863446    0.48157024025159
C           4.18380245430410   14.86212683610199   -1.12090098963130
C           5.27852633394078   14.43261617861979   -2.09446692503398
C           6.72569469205546   13.68515459408783   -4.70938169076673
C           7.26567697100550   13.33908249015828   -5.90153624489279
C           8.17922417569374   12.28893168116703   -6.18404830408129
S           8.37227336549110   11.84505068101689   -7.85807889219529
C           9.54048256319051   10.62322689364732   -7.46308843157839
C           9.76283484215432   10.58235361163729   -6.09580366061242
C           9.00336742815820   11.51936062703528   -5.37604918276971
C           9.12194390320989   11.68305262539155   -3.89095586109753
C          10.38431658771685   11.01183545122504   -3.33918421874712
C          11.60361128710498   11.89601099601699   -3.57684539119115
F          11.73813347353222   12.34961545699030   -4.82804419583887
F          11.56232340944609   12.98652940665424   -2.79016820310996
F          12.75203643658739   11.26315320484016   -3.27919189567505
C          10.55768070384210    9.61251893618955   -3.93204454978479
C          10.74640765851754    9.65666194644242   -5.44638637846145
C          10.15469970491744    9.81954319255622   -8.46344588475185
C           9.79890307599871    9.85288040203096   -9.76720025285626
C          10.35422334897632    9.10480216042607  -10.84431920245206
S           9.41413693869642    8.98586618432145  -12.30187568046758
C          10.63033446389534    8.02921297151219  -13.09088202700292
C          11.70782493290822    7.82249379846579  -12.25197903241136
C          11.55473816653985    8.43088340632927  -10.98864656400706
C          12.61717126011870    8.38269126212877   -9.93210734432160
C          13.97128503111254    7.94616913713604  -10.49852177078710
C          14.65415030080023    9.11076283011335  -11.20669905427926
F          13.88759659554035    9.77190741670147  -12.08093781688412
F          15.07390765882890   10.02873353108346  -10.31634739233283
F          15.74809393749590    8.71990464600685  -11.88371875836622
C          13.79913187073366    6.72851913333741  -11.40713158025192
C          12.93349828746487    7.04698946237623  -12.62403325708665
C          10.34763667544057    7.60027460187249  -14.43448985244364
C          11.18671962345532    7.08153981466469  -15.32913719632974
H           4.25816593075086   23.00538835408607  -13.14105893236943
H           7.02995002472964   19.49550316538688  -12.55634815794155
H           5.43409713708197   19.76188134966582  -10.52139166249154
H           3.03234109494769   22.72372657326465  -10.94242647682828
H           3.88790766237946   20.51884904710924   -9.17028492781403
H           1.71228983754364   22.68025982842451   -8.91248378016312
H          -1.19823146322223   22.53963988914147   -4.38043376417734
H           2.31961745254327   18.53669310617322   -4.02895081543479
H           4.15433872752584   18.16661798328067   -6.46109991705607
H           2.54452873681721   16.73528726523523   -2.56694222474783
H           3.74807049754267   18.02133988903192   -2.44795888302724
H           3.28627354225058   16.65268591793075   -0.32052358851575
H           3.22545629577602   14.45173810682570   -1.44456999899674
H           4.40163260365716   14.47239985924490   -0.12523505286851
H           5.20266369936301   13.35623308087738   -2.26452166532024
H           6.26416698462180   14.62475788874037   -1.65931439117469
H           6.93714012577122   13.12081369759072   -3.81597757611902
H           6.95477668971536   13.90663513324224   -6.77112866787103
H           8.25461675181595   11.22673256679687   -3.40380818932516
H           9.12826339176661   12.74664149674428   -3.63769632915174
H          10.30574592117857   10.93534348659842   -2.24857736596058
H           9.65877248438403    9.04112263437527   -3.69245086000100
H          11.41034565210810    9.11332520850852   -3.46880005525424
H          10.63185771502491    8.64761000481027   -5.84878394122926
H          11.76071401204730    9.98995269682326   -5.68720986235375
H          10.92085789376432    9.14745445713132   -8.11321696485998
H           8.97131197235208   10.49539908024959  -10.04436080217963
H          12.32940733385537    7.66390552693621   -9.15850245560804
H          12.70948525460978    9.36478097617977   -9.46007631775968
H          14.64479918071110    7.69132284716950   -9.67205360873078
H          13.32663044006009    5.94201268540789  -10.81545965516101
H          14.77404825432968    6.36528419943031  -11.73633351178888
H          12.64165807781775    6.11374034799017  -13.11104165739143
H          13.51451507723016    7.62822219556836  -13.34613991489607
H           9.31520968402626    7.75547878921244  -14.72494762845569
H          12.23381106826309    6.93270513561415  -15.14654818680364
H          10.83283005173616    6.80586904656300  -16.30752520032568
