99
 SCF done       -179.312514589186          0.000183918427
C           1.51007726364496   24.12262800769814    3.12216516754643
S           2.16305759487972   23.72231853820889    4.65788368593228
C           3.64337493646028   23.23464622586756    3.93451726639203
C           3.63351968407158   23.37729187859351    2.58783791329186
C           2.39404130475340   23.88566852706236    2.10579860203515
N           2.11183034000862   24.18379293240088    0.77780760324196
C           2.52448267438693   23.51829830496558   -0.32890048755577
C           3.20870160897626   22.35017495525078   -0.37227646258305
C           3.57741919794055   21.76833893421300   -1.61180198345272
O           4.23320348544898   20.57608614068611   -1.62181430788412
C           3.38736091488065   22.17023603581530   -2.92096515134310
C           2.82807607551834   23.21041650383142   -3.76806215777140
O           2.24586257759477   24.23616021195198   -3.49189760347755
N           3.09946502841840   22.77201319589901   -5.06049648799668
C           3.76927471372680   21.54868491211973   -5.14544478089373
O           4.08177202529824   21.00696707230174   -6.17560658256638
C           3.95397389764027   21.16290785372331   -3.74942526131512
C           4.46606261266721   20.19128449285977   -2.91596714483521
C           5.11148209469032   18.96439264370508   -3.20737325072669
C           5.58636785575755   18.12486163084957   -2.25562498682362
C           6.18671734518520   16.86761483548539   -2.51040189468480
S           6.29063194687687   16.21033686420119   -4.11890912497292
C           7.02568717713887   14.74908714487811   -3.52999419513269
C           7.17753454343519   14.78910417308080   -2.15163281086650
C           6.71747917189043   15.98349074604662   -1.58144672137137
C           6.77719452814856   16.26734268286802   -0.11013584539415
C           7.71481734627041   15.29890688518861    0.61799714002715
C           9.16427973328593   15.74065235719441    0.44952327420412
F           9.53574627047043   15.99528009006563   -0.80952649408951
F           9.40203970142740   16.87143370500662    1.14076870989869
F          10.03015208405900   14.82682032197258    0.92213109250541
C           7.48937152946718   13.86094592902066    0.14557298880409
C           7.79371052132311   13.68980319063687   -1.34144714797924
C           7.37276438959518   13.67867281143419   -4.39944082192391
C           7.21320113680613   13.71616523114672   -5.74127387548134
C           7.47516720043102   12.66653123973975   -6.66857193608347
S           7.60748904243769   13.10195269386292   -8.35256176225790
C           7.88518336445045   11.45065673494053   -8.80884346944804
C           7.84262645753377   10.61760649658058   -7.71695892407398
C           7.61392405004120   11.30138933721595   -6.50216210912465
C           7.49451545013390   10.56812007357019   -5.20231460054062
C           7.20047419738672    9.08614148538187   -5.42249574281553
C           8.18662705610580    8.49905934388081   -6.43681654865363
O           8.05788397363505    7.09950223053930   -6.60263406099819
C           8.59438982285750    6.32379207245014   -5.56317669570919
C           7.91729408073937    9.12638480233479   -7.80388562578149
C           8.09765123056589   11.10964212581880  -10.19656046058132
S           6.83730326816515   11.37606276036789  -11.36075426560559
C           7.84416652000190   10.79608420391187  -12.65308394159753
C           9.08274636153350   10.42263922907909  -12.18534035868362
C           9.22687740684029   10.60640012009643  -10.79075779920084
C          10.50372720903280   10.32049473769764  -10.05995154153518
C          11.69564455250866   10.27534592910641  -11.02005305232048
C          12.12219157009868   11.68309457527509  -11.41851940063177
F          11.14123617307058   12.47134513744158  -11.86855247153022
F          12.66681395412721   12.33013422791521  -10.37101733619742
F          13.06532333244268   11.66875795587564  -12.37784684362024
C          11.36955137822999    9.39638351636828  -12.23059030614786
C          10.20781977637754    9.94895325712600  -13.05509553012775
C           7.37021397554411   10.75785465832102  -14.00963504619537
C           6.16352954080554   11.15554047237079  -14.40340487972107
H           0.51637626573923   24.51762600980731    3.05211235044546
H           4.44167747179114   22.88215989328788    4.55617912184613
H           4.47863192545244   23.17128412344314    1.95877853699996
H           1.41776075553682   24.90241518361240    0.63586571864345
H           2.25062303061049   23.99837626411778   -1.25943844740704
H           3.46905006023338   21.79726683972448    0.51549700598034
H           2.82663648885918   23.29584592042558   -5.87935370548108
H           5.19931968507822   18.72503058094384   -4.25712499023336
H           5.49231915258371   18.41537641688190   -1.21814306636714
H           5.77457945529684   16.16706223182332    0.31695624602436
H           7.10623276877076   17.29521834061161    0.06107818524939
H           7.53086137175733   15.35691309329933    1.69706085215653
H           6.44203681312137   13.61605804337073    0.33287122314277
H           8.10747475087281   13.17658269896985    0.72919801944564
H           7.41291232031467   12.72094151466318   -1.67216289147283
H           8.87545571315995   13.68642457998076   -1.50610175877297
H           7.79944237099722   12.81156182856754   -3.92204748424731
H           6.86312288483130   14.64055411574204   -6.18488567162061
H           6.69880482416555   11.01471912050999   -4.60129419571410
H           8.43314235301436   10.66822145762999   -4.64566014021967
H           6.18745195185903    8.95467855237336   -5.80670688298454
H           7.27340391334613    8.55843057858317   -4.47024474116722
H           9.21597811805417    8.73456336108078   -6.11324745370040
H           8.54190593083165    5.28933576754685   -5.89745201992052
H           8.02556491525741    6.42582668196112   -4.63224707734309
H           9.64091518171756    6.59050231183789   -5.36785611486181
H           6.96234385287011    8.73442304396474   -8.16689918079720
H           8.67889930716028    8.80848262922045   -8.51480185728277
H          10.43912760928440    9.34592958190768   -9.56631956019678
H          10.66256749038367   11.07043493343382   -9.28077478262450
H          12.56622840838645    9.86059857827532  -10.49850333269837
H          11.10983893143846    8.40574777991387  -11.85185424961957
H          12.25168717537124    9.29469275914026  -12.86508679784832
H           9.85514732400095    9.17202392372738  -13.73723626916089
H          10.55299729048787   10.78661305280421  -13.66894489254634
H           8.07827006640920   10.37611173447602  -14.73304041409414
H           5.44414432522387   11.54491376188934  -13.70209537585924
H           5.86111348893202   11.10763732636420  -15.43420705943889
