75
 SCF done       -157.766187819462          0.000312789932
C           5.34877930191433    3.53689924277293    4.28010454308991
S           6.30316082606538    4.24836477757802    5.51526201928957
C           6.68284107555026    5.57834518939534    4.49771984616117
C           6.10681462413308    5.47993182759315    3.27577675392683
C           5.32912630733963    4.29501764652623    3.14034117095665
N           4.62112491749166    3.91847746179639    2.01187137291170
C           4.57752279655062    4.56812050566383    0.83411038890829
C           3.86584726270720    4.14366591936641   -0.24053336916046
C           3.85295216533028    4.85178989928486   -1.46367290186988
O           4.55985077444357    6.00400815660509   -1.60705002277292
C           3.21266219107471    4.58429421764148   -2.66306231143533
C           2.33089690970122    3.64692174640280   -3.34886615963839
O           1.80067033571606    2.63026012810461   -2.97892043885191
N           2.20376340445558    4.19386995895527   -4.63025728153465
C           2.90403898303076    5.37521853892659   -4.84714179743174
O           2.92591733622742    5.99504723104282   -5.87837153871754
C           3.56027461549610    5.62627788479158   -3.55780296396939
C           4.39394640397469    6.48854404684638   -2.87716193593680
C           5.04547019705966    7.68135822845949   -3.27587342162617
C           5.83829950102724    8.39167535702915   -2.43701734316930
C           6.53845291971445    9.57408056959685   -2.77905411420701
O           6.48209293535418   10.12701124542471   -4.01835249422883
C           7.37935379697611   10.34650097095744   -1.99791047949046
C           7.96164024227104   10.47474141296334   -0.66084490910099
O           7.83512721262143    9.79761816441642    0.32740829205835
N           8.74988692450515   11.61745107721193   -0.75997532910002
C           8.74603835220893   12.24660602863274   -2.00764023273209
O           9.35838770168117   13.24318514160851   -2.27538953312241
C           7.84912569533786   11.40385173815760   -2.81191652772911
C           7.27502388271342   11.23676099197153   -4.05864023061881
C           7.41094550819497   11.99520599606389   -5.25106966934165
C           6.72301704054220   11.71924820931105   -6.38494221987269
C           6.88008341917183   12.46378041105925   -7.58381905630429
O           6.11656292404657   12.15753719218023   -8.66650150831636
C           7.71799242666144   13.51047300480671   -7.92692180475510
C           8.78181003925258   14.39793929904229   -7.44503853116589
O           9.32616650454590   14.47149603897640   -6.37554472481706
N           9.06626136874145   15.19996822503093   -8.54909422263241
C           8.31279847482207   14.93699422299898   -9.69059671458832
O           8.41152700825523   15.51681067251677  -10.73955036131687
C           7.43807179824247   13.83426939946073   -9.27546898954943
C           6.44030608244440   12.97818224623561   -9.70067965739810
C           5.79917193028645   12.88994264942498  -10.96441602586606
C           4.80296027304479   12.02434627589514  -11.25891985961153
C           4.18425020679972   11.96467823869080  -12.53770455852495
O           4.59554774773968   12.77627349559339  -13.55050556032860
C           3.15426860317206   11.17682049559583  -13.00913706233323
C           2.19766910858657   10.12303529366141  -12.65105631465363
O           2.01714966379044    9.53418888728024  -11.61926333108353
N           1.47967704929058    9.92196007112074  -13.82931577892031
C           1.85456864969246   10.72152831734456  -14.90777796627678
O           1.35302891338498   10.69258808859677  -15.99984071646195
C           2.94669994211671   11.53812292756431  -14.36500099117490
C           3.85733497737609   12.52858599034316  -14.66024404950745
C           4.08867532745096   13.25015746790314  -15.88024487663420
C           5.01433905212695   14.19827316596474  -16.01367259487724
H           4.85508629918512    2.60251747148233    4.45709953625594
H           7.31402463286217    6.36203196634075    4.86511202944246
H           6.23192372696767    6.22206507524863    2.50990622883038
H           4.09442776751024    3.05770745312371    2.08601268059762
H           5.15364622738586    5.47822008646989    0.76567415344722
H           3.27814011749772    3.23940449283877   -0.21219444346940
H           1.64222541493748    3.75922396910023   -5.34843651662370
H           4.88005507431834    7.99454084719410   -4.29569313463073
H           5.98462983363276    8.06073182169274   -1.41919853628565
H           9.28894644162664   11.97287110006195    0.01686714274425
H           8.10963447679777   12.81949173796326   -5.20515069300071
H           6.01423412800593   10.90403706658843   -6.41657755291349
H           9.77234930723279   15.92194469005117   -8.52111954306891
H           6.16210279936178   13.58453407624534  -11.70821672584567
H           4.42563116424336   11.33096532860499  -10.52191740041532
H           0.73558228958551    9.24186963422262  -13.89624936141530
H           3.44224037451167   12.96022969263027  -16.69597438412433
H           5.65166434025003   14.47939577428172  -15.19218635952725
H           5.15684195175155   14.71694612747037  -16.94468902459584
