88
 SCF done       -162.690734069543          0.000443743700
C           3.54459665300397    0.92379032523727   -1.23133474905337
O           2.93022453987842    1.25283411339861   -0.01254630398489
C           3.60563064029263    2.23608241651419    0.74831483899723
C           4.88966441548731    1.70526849113498    1.39723272769405
C           4.56366956567876    0.46713844736790    2.22797386188904
C           3.53224366965177    0.80983744291471    3.25035045071362
C           3.37396693599344    0.18345692864210    4.48127110119220
C           4.07267818642314   -0.90904214545820    5.06615658817431
C           4.67020856160737   -1.91870266597977    4.39832696000178
N           5.36424634034541   -2.93563222851968    4.99485123283662
C           5.71862256652852   -3.00960770866610    6.33296404938378
C           5.54022101305534   -4.20403782117894    7.07707219637182
C           5.89074069760350   -4.07849731103533    8.38111451940912
S           6.45620589774597   -2.50395330529299    8.75364623504733
C           6.26328930952865   -1.98264600078294    7.09750569301185
C           6.74470813820268   -0.69395627581125    6.73475288774281
C           7.03339764920143   -0.30143816732586    5.47193566835007
C           7.54616971520042    0.97177103008128    5.11553074391818
O           7.73840201872422    1.96824664989238    6.03247645712800
C           8.26197001662891    3.06209967881923    5.40638499736179
C           8.58947398260118    4.24572890430208    6.11159919890844
C           8.37414587402102    4.39723232411870    7.43889163624483
N           8.67923082584938    5.47591815510249    8.19988647792814
C           9.40733695292731    6.60846652304553    7.85434651556373
C           9.20883954833890    7.83731846987314    8.54765274466066
C          10.02982500941117    8.82118853992177    8.11038050316384
S          11.06746915111282    8.28514186672454    6.85211318567817
C          10.39499027236334    6.70665364039791    6.91453130554045
C           8.40500599872567    2.76873527384391    4.06420920372102
C           7.94667525554082    1.43627699368939    3.88148959859718
C           8.10468635553120    1.07674240457104    2.47595849806038
O           7.84398226061012    0.05721198748527    1.88133934926124
N           8.64670616445717    2.22076611514398    1.90209676479305
C           8.86321689886005    3.28708402639591    2.78461690709586
O           9.32805704619118    4.35383616417470    2.46744462988352
S           2.11361693342085    0.93114841585323    5.41049650908724
C           1.76759538686691    2.06523783440588    4.12664441264097
C           0.70550742274032    2.97599913603284    4.21537032554865
C          -0.19985703402201    3.01459099632178    5.24105431952347
C          -1.28361222616412    3.89929859008851    5.25826802156204
C          -2.33705048622608    3.92376317614554    6.14075726841229
C          -3.16399793144072    5.14216552681439    6.25880883716573
O          -3.15430460290469    6.11077195549987    5.53009550623819
C          -3.97147168213583    4.94745045991815    7.48687186390074
C          -4.85071330947699    5.81907284726703    8.09391773417039
C          -5.47627172633151    5.41386955626169    9.26712829149101
Cl         -6.58028078175285    6.47192099511982   10.05265209304849
C          -5.20995945420398    4.15397345611913    9.80886711835624
Cl         -5.97932997769116    3.67091547968485   11.26821532929796
C          -4.32943747054098    3.27333328687128    9.18867940693210
C          -3.70850519015664    3.67236853880190    8.01809540908878
C          -2.78583852519915    2.97010357279631    7.12178642010225
C          -2.59087108995522    1.60977915364928    7.11480208213227
C          -1.98406066020337    0.88773079383332    6.06668926845501
N          -1.56543978195834    0.22502790356699    5.22732702699458
C          -3.08499269874397    0.73984787823147    8.10669349362463
N          -3.43494216378177   -0.01862387657720    8.89510301783927
C           2.64035892531327    1.86734475731246    3.05451138706246
C           2.62791517543676    2.72064177672615    1.82611068823203
H           2.85058216485209    0.26795814040306   -1.75386346532479
H           4.49573991453052    0.39897084895882   -1.08966950121201
H           3.72372613215982    1.82035783087716   -1.83830651154965
H           3.85576252939340    3.08543337834489    0.08820301771980
H           5.30886531792942    2.48859649702713    2.03235479080720
H           5.62955087267719    1.45349043611832    0.63721438068305
H           5.46550018814125    0.07856955467429    2.70168153145105
H           4.16790440865765   -0.30269543263705    1.55938140465366
H           4.03840729412178   -0.95425724182227    6.14609776939442
H           4.61097599586439   -1.99742017297313    3.32389170160142
H           5.40631574542337   -3.80992752193194    4.49098058160619
H           5.14742960596886   -5.10931296017474    6.64866728089461
H           5.83836925654012   -4.81840430189088    9.15439210533227
H           6.93657462393529   -0.01024397920674    7.55066905050328
H           6.94060619661882   -0.97970860051635    4.63950229390804
H           9.00260838263623    5.03270147076161    5.50410419381741
H           7.89507153680515    3.59425448250970    7.98369903245712
H           8.27352701903949    5.50974457472392    9.12332315525111
H           8.48030693552670    7.96465809183819    9.32861897098454
H          10.08721360171163    9.83600065116958    8.44834746927776
H          10.79312483511907    5.94800665682920    6.27416059169086
H           8.88531352814630    2.27684212616303    0.92263286423539
H           0.56993488167754    3.64732235747293    3.37731642329761
H          -0.06821182490298    2.32696118502177    6.06442299569450
H          -1.27814949144642    4.71004036406802    4.53667822417822
H          -5.04833047946867    6.78922290812519    7.66622568458174
H          -4.14737464417768    2.30965164467172    9.63563642698889
H           2.87881069079745    3.74845564235162    2.10319319608047
H           1.62630960317700    2.72251587527834    1.39015183449717
