103
 SCF done       -189.593776966145          0.000365127936
C          -4.77213297812663    1.15258805605143   -0.34909121074123
S          -4.47020337837553   -0.24536898557447   -1.26020455733318
C          -4.83057569192052   -1.30615592460765    0.07981103557590
C          -5.21324823613372   -0.54823180898141    1.20281166507539
C          -5.16641808592066    0.86097599613933    0.94521636616589
C          -5.50910823201634    1.77868745589489    1.95713364060271
C          -5.90838008381052    1.33588646616212    3.19329250190782
C          -6.25319656584351    2.29107069802230    4.24615167792297
C          -6.83428598035674    3.46420727646618    4.03622748576575
C          -5.98809927712661   -0.06771732023033    3.44588862462028
C          -6.46556637275636   -0.55951957781192    4.77743658803346
C          -5.65532431759329   -0.97097498867390    2.46966774669655
C          -4.68524162568144   -2.68674741911383   -0.16283082243535
C          -4.69744293110875   -3.68724880968843    0.76274568678013
C          -4.58477129880643   -5.08030426639387    0.52055591690486
C          -4.45783490663587   -5.73248004219344   -0.73147886186336
C          -4.34036741184856   -7.17623727013153   -0.83171920259220
N          -4.30005426245999   -7.73075471403864   -2.05663061507740
C          -4.25149395158037   -6.98206636719955   -3.12586039828230
C          -4.29500904003067   -5.55533218454010   -3.01886511318535
N          -4.43344800729655   -4.98843988209646   -1.84399788317409
C          -4.21953942699219   -4.74187022224334   -4.17322012317217
N          -4.14698600835029   -4.10804142622911   -5.12588380148566
C          -4.13149531068730   -7.61640683396816   -4.38707729401963
N          -3.97702844558464   -8.11184228683442   -5.40891359019707
C          -4.28843419601130   -8.02841278967697    0.29295736123230
C          -4.42376757882943   -7.37766736220780    1.53841031416090
C          -4.57631781193950   -5.94514775948318    1.64148039096037
N          -4.68064482784174   -5.54061902190562    2.90814240116669
S          -4.58258772504116   -6.81756442079936    3.87484491439517
N          -4.40849473095010   -7.94599805813769    2.74997088517935
C          -4.08723455300399   -9.46845234398356    0.19510395171327
C          -3.46374778399764  -10.04362057027491   -0.91982315360503
C          -3.28404361336249  -11.41227546862056   -1.06114001692206
C          -3.66187985780645  -12.22935149726653    0.01147628903721
C          -4.26974490427565  -11.67476343155634    1.15234223020064
C          -4.50794939553980  -10.31257063195888    1.22497318795178
C          -4.55055098621066  -12.67076811215843    2.15685370193294
C          -4.10953577907331  -13.94491199219578    1.76922766738868
S          -3.38219864604494  -13.94202308932043    0.17739491498524
C          -4.26587881144135  -15.05037280742027    2.58766519278027
C          -4.87307484537461  -14.87465974241829    3.81655655674661
C          -5.31325550254174  -13.61755956898488    4.21891174150919
C          -5.15507821556831  -12.51748128014723    3.40023616425692
C          -2.72915237095867  -11.94362019769614   -2.30299727045289
C          -3.23781022453353  -13.10643882631548   -2.89565220524962
C          -2.66763040819824  -13.67355346487594   -4.09349563475420
N          -3.13400452759858  -14.83277316497063   -4.55223841956165
C          -4.16145005868213  -15.41739531812025   -3.97958900808911
C          -4.81786895074876  -14.77445739492502   -2.88022074425192
N          -4.34270872634375  -13.67208209413204   -2.36796904811059
C          -5.98948456151775  -15.34240314143912   -2.31852382904367
N          -6.92608833642095  -15.83225939305367   -1.87725707252285
C          -4.60779831361290  -16.66416511249249   -4.47070369622950
N          -4.99433897060661  -17.67315247297855   -4.85463821573393
C          -1.59689381567795  -13.06085600752998   -4.80711779484812
C          -1.18947146408513  -11.81136956124020   -4.27656287096166
C          -1.73997128912799  -11.27574946248288   -3.04542255125819
N          -1.21463282576178  -10.08136886587435   -2.75392485274841
S          -0.19296376016555   -9.65371812344579   -3.91408380480699
N          -0.32483328921827  -10.96230859725858   -4.82896166292496
C          -1.08279895405809  -13.68268581831474   -5.97091135582658
S          -2.07649392040896  -14.85965744556510   -6.78062366016732
C          -0.93201028089072  -15.10871174366424   -8.04200260068651
C           0.23368670297993  -14.36272610346627   -7.81515618272761
C           0.15712878842297  -13.55229716078259   -6.64223155039605
C           1.29087510588993  -12.82593035211183   -6.26400112295964
C           2.44287913608867  -12.84353645214923   -7.02466181587906
C           3.60001986198711  -12.05687693199646   -6.60574388497650
C           3.91143802749775  -11.77381400090493   -5.34699066110904
C           2.49632768851255  -13.61228593617989   -8.22120219932878
C           3.73979888228031  -13.63831740439944   -9.05632466626285
C           1.40904742387488  -14.36107774349107   -8.58726756642092
C          -1.18666177803952  -16.01348821544374   -9.11883758166847
C          -2.26885897027418  -16.79037784628335   -9.21249091684851
H          -4.65440784083468    2.12295349675814   -0.78978754655973
H          -5.43833218450071    2.83515835039107    1.74864800070211
H          -6.01256322554289    1.99088808037772    5.25696002758944
H          -7.12507737875892    3.79137646600205    3.05196864395589
H          -7.05856796900018    4.13635293507590    4.84658731381337
H          -5.75048806939249   -0.30258500214420    5.55929060391763
H          -6.58267348674937   -1.64013852261110    4.76680575905217
H          -7.42145104839548   -0.10567021983950    5.03470068100105
H          -5.75742439026694   -2.02251098578174    2.68033897220278
H          -4.51969792960887   -2.95726110922856   -1.19663392120426
H          -4.77346040582599   -3.44960502951080    1.81261706014711
H          -3.11101433132383   -9.41159083460869   -1.71416644659845
H          -5.00884446210845   -9.90812413073166    2.08768123199755
H          -3.92223730375491  -16.02133290599196    2.26691592079212
H          -5.00739540983964  -15.72328703288234    4.47006756145213
H          -5.78511174475981  -13.50390091921637    5.18342253773728
H          -5.49603987027909  -11.54298781017428    3.71502455953368
H           1.25749965945003  -12.21661622603365   -5.37940690138247
H           4.23889469372896  -11.69452217965207   -7.39938019025956
H           3.33221289036683  -12.13779569983217   -4.51506105112778
H           4.77419591501069  -11.17892710148663   -5.10062324238682
H           4.60453896464518  -13.90898546174115   -8.45242797064458
H           3.92699014563362  -12.65837244045815   -9.49546557569487
H           3.64108308103507  -14.35885388033627   -9.86441497017635
H           1.45548736562062  -14.97165182062420   -9.47664661508078
H          -0.43323751274626  -16.04682646264072   -9.89463481803427
H          -3.02978380962687  -16.79021140524075   -8.44979496292734
H          -2.41750857087847  -17.45030346395263  -10.04844037257566
