108
 SCF done       -193.723342196205          0.000955327952
C          -4.14261472426408    0.49063564640546    6.41376445884311
S          -4.95306562552720   -0.99634504431107    6.52512761683840
C          -4.06049944663010   -1.68454507157285    5.18960463215294
C          -3.11741297180956   -0.75304292764696    4.71173683493921
C          -3.18472031608379    0.49387750581295    5.41441742945971
C          -2.32366662023065    1.55138222690833    5.06320433486384
C          -1.39533022960958    1.39160003321564    4.06436678069206
C          -0.51467276841686    2.49732800420202    3.68812720471054
C          -0.03885081424643    3.40230923868095    4.53226333676972
C          -1.29149457139550    0.13519632428080    3.39409420333006
C          -0.24186163348354   -0.06627009488973    2.34519064999956
C          -2.12964126814256   -0.89987569180192    3.72214959357225
C          -4.40388603552442   -2.99509780933855    4.81119369301952
C          -4.03158198892385   -3.63252813257458    3.66129042590906
C          -4.31916642813962   -4.96504427462079    3.28852575066422
C          -5.02632685166670   -5.93916920895386    4.04285549323289
C          -5.22045712352350   -7.29455790421026    3.56824645153705
N          -6.04659477468631   -8.10242018211412    4.23241118974801
C          -6.59473312552653   -7.71166624140791    5.36364059223858
C          -6.26587750764001   -6.43966683455045    5.91594993983451
N          -5.52301006359518   -5.59500572402590    5.23700593324555
C          -6.73968539827591   -6.06361022173311    7.19562840806854
N          -7.14218570204242   -5.78687229126523    8.23257442076237
C          -7.46224574578705   -8.60092309312304    6.03872250728669
N          -8.12886252124866   -9.32456698706276    6.62747836394002
C          -4.62109771006575   -7.77913386555143    2.36713078842668
C          -4.00837020709153   -6.76957338688487    1.57459057091669
C          -3.85300354699478   -5.41512477424297    2.02528238509738
N          -3.21803942913816   -4.66459263079309    1.12662472459425
S          -2.86374441761746   -5.56123624487890   -0.16218869459279
N          -3.48665765491266   -6.95165273402564    0.36648130676122
C          -4.65149869754266   -9.10696980233612    1.89599620404732
S          -4.37612033915887   -9.36099589565333    0.19766411836738
C          -4.63413324808366  -11.07776622153417    0.30738612585071
C          -4.86955054049717  -11.45358261057701    1.65424456319839
C          -4.85201777158845  -10.35439805004638    2.55501298213133
C          -4.94156160280473  -10.62874493308010    3.92103104614998
C          -5.12354365383791  -11.91700216956282    4.39348400374477
C          -5.20421117068699  -12.08219254952586    5.84808522967528
C          -4.60544924227665  -13.02576314746477    6.56013943499018
C          -5.24533094326377  -12.99297906240324    3.48162054257303
C          -5.54494723794107  -14.38900197579456    3.93285989023377
C          -5.09592122874104  -12.74602548782106    2.13417522629595
C          -4.54438186036106  -11.91535123006889   -0.79906892669415
C          -4.29752797087936  -11.46146833871489   -2.07393418016506
C          -4.12680157295664  -12.26000274920226   -3.21312252841353
C          -3.91341136511159  -11.64290499155071   -4.47970864128508
C          -3.66759609238354  -12.40906482212868   -5.67213517229163
N          -3.51165290616135  -11.77806044809062   -6.83893453564747
C          -3.57829830554369  -10.46639085730185   -6.89575252810908
C          -3.80071516326994   -9.70951185103753   -5.70733537996982
N          -3.96004354062862  -10.30997151244680   -4.54659040330200
C          -3.85127797746897   -8.29587092251834   -5.75971304548790
N          -3.87815074608173   -7.15231058937043   -5.83223289456778
C          -3.42176602407511   -9.82126899738644   -8.14547949677064
N          -3.28988169293572   -9.26699508459061   -9.13994848323009
C          -3.55005456023359  -13.82714389193147   -5.67030975711198
C          -3.85520630032158  -14.44494156326731   -4.42754795341149
C          -4.14717709078032  -13.68181804521031   -3.23369084919227
N          -4.44187350093365  -14.46984853203191   -2.20524615415903
S          -4.39157696699328  -16.01072228874342   -2.67991909056315
N          -3.97742479858799  -15.75148133202773   -4.21199695114492
C          -3.21719606411217  -14.50485960201935   -6.86550381521399
S          -3.49804362025622  -13.71395770598990   -8.38734728916229
C          -3.06550845894373  -15.11512542681736   -9.30325399669964
C          -2.57506951458473  -16.12777846889209   -8.46883873807814
C          -2.66243612867766  -15.78821112715592   -7.08332796341621
C          -2.11594379360151  -16.66574171072967   -6.14290614993904
C          -1.54471480227650  -17.86291388616544   -6.52471323927835
C          -0.99900647449535  -18.75576090408792   -5.50595889973293
C          -1.49568523580560  -18.87851369484488   -4.28113226401761
C          -1.46135815675051  -18.20138745662830   -7.90358707915419
C          -0.82521979517446  -19.48877936457021   -8.33113171658693
C          -1.95884424141422  -17.33643755069879   -8.84311204882826
C          -3.23770726034754  -15.06401968848013  -10.72383033630034
C          -3.43065344448972  -16.10321417325386  -11.53908947400615
H          -4.39260813475469    1.29440159783625    7.07787346453398
H          -2.41539086259740    2.49321348570295    5.58199924258744
H          -0.24472957798022    2.55275289628874    2.64223459969908
H          -0.25001349324135    3.36797404619841    5.58807850397816
H           0.59826098303007    4.20399990225034    4.20035868640633
H          -0.45468796328834    0.54541238537256    1.46817287461862
H          -0.20835653493993   -1.10666216847750    2.03206170344184
H           0.73904268882129    0.21853234614190    2.72292153361505
H          -2.00534084992474   -1.84652194876270    3.22285190162131
H          -5.05102609276259   -3.52337290738005    5.49738540567622
H          -3.47324859689864   -3.09648281700451    2.90881673039630
H          -4.84905284224307   -9.83086359818028    4.63695298351673
H          -5.77829423279904  -11.31537641905567    6.35473287819921
H          -3.98298428226658  -13.78091141022661    6.11175021408890
H          -4.69479125012670  -13.05790971418723    7.63262471473304
H          -6.11660554418946  -14.38600848104150    4.85718069199791
H          -4.62143793543491  -14.94182194621534    4.10506106610581
H          -6.10787512762585  -14.91689728547133    3.16600363728514
H          -5.15486654136017  -13.56590564626831    1.43406256545038
H          -4.66684043316733  -12.97758032372447   -0.64601144928917
H          -4.20896414127871  -10.39527430417834   -2.23855366672379
H          -2.11242255979810  -16.39479022297851   -5.10251812880545
H          -0.14611462195596  -19.35383545737956   -5.79693622857010
H          -2.36974451896674  -18.33445814419226   -3.96399581797435
H          -1.05773556034180  -19.54586205050558   -3.55850266719980
H          -1.29232422690104  -20.33314219451922   -7.82648980156202
H           0.23656935236303  -19.49383373434248   -8.08437916574997
H          -0.92467584696072  -19.62585493447742   -9.40498048079914
H          -1.84329490680736  -17.56310866367120   -9.89122976137611
H          -3.27114471520709  -14.06118525626270  -11.13253441315186
H          -3.49133707446807  -17.11586324493238  -11.18198160211313
H          -3.57262623060119  -15.95689068019679  -12.59548092657966
