123
 SCF done       -211.696396780499          0.000808165504
C          -2.16024116059462   -5.40187910177269    7.28305180736788
S          -1.77425971960142   -6.69795325883318    6.24752641188973
C          -2.92768213396059   -6.19439178620160    5.05418739128110
C          -3.59039068222349   -5.04071203302360    5.47442836490513
C          -3.14354499178256   -4.58749992265541    6.75887022156180
C          -3.70705763795725   -3.42415095947453    7.32229779456126
C          -4.67713417394014   -2.72448023068155    6.65100489865818
C          -5.24289734206585   -1.50783270319221    7.23291601353657
C          -5.43075212620659   -1.31074491079200    8.53077485448786
C          -5.12603199288328   -3.17705015251344    5.36787016561289
C          -6.20042083518101   -2.42137410725617    4.64636145623660
C          -4.59288944851216   -4.30454072607669    4.80925037195437
C          -3.10261871694555   -6.90306132582877    3.82828627148555
C          -2.39563986747679   -7.97401179462152    3.44925667195093
C          -2.57127118538054   -8.65874383112212    2.14083595471372
C          -2.81074306290405  -10.16799432482896    2.28177435233441
O          -3.51513906327616  -10.71375832609091    3.07396225030952
O          -2.10628176199744  -10.82586702809145    1.34554668014463
C          -1.44334725283935   -9.92910257120103    0.46265609663757
C          -1.30719574888765   -8.62960942151675    1.26959046837880
C          -1.10632402699541   -7.37023489023430    0.44014785335611
C          -2.12029584879491   -7.23848846951898   -0.68907347484128
C          -2.21243253085212   -8.47096535841443   -1.58185645397971
C          -2.27902576285028   -9.81534667986655   -0.83354727671592
O          -1.82041011220997  -10.77856689776855   -1.77560864165690
C          -1.13087080606396  -10.22203543218971   -2.77766058520898
O          -0.63678212261001  -10.84836608809943   -3.66468223068608
C          -1.07506840135119   -8.69803633447972   -2.59635553133575
C           0.29438823793905   -8.32681272333300   -2.13887898790031
C           0.98619752218825   -7.31914269517530   -2.68498085329790
C           2.30236788041901   -6.87877180859506   -2.30473452054871
C           2.98809327043577   -7.24996720999702   -1.13063938054083
C           4.33576126706721   -6.79323897840894   -0.87745267707311
N           5.02836878290063   -7.30372214355969    0.15992422374349
C           4.41895014537934   -8.07097133906989    1.01989630430559
C           3.01251246454393   -8.33665275052325    0.88840990049336
N           2.36030100014328   -7.97328037110354   -0.18772702808048
C           2.30180731736723   -9.00160352883679    1.91417972546302
N           1.71899820172952   -9.52436220605022    2.75145720078841
C           5.15468346629933   -8.65714883335730    2.07992979521853
N           5.72027503468037   -9.15546719130373    2.94219141206604
C           4.97466513589772   -5.83711867854727   -1.67831972882954
C           4.27525705482443   -5.40637012841807   -2.80789351896881
C           2.97115382930142   -5.95360663068783   -3.12775677850167
N           2.48274361930103   -5.43543347092432   -4.25967650238250
S           3.52895434700178   -4.38439980804966   -4.85442246587859
N           4.66199382902626   -4.50910554761658   -3.72865114384665
C           6.26492425983920   -5.28519879733121   -1.17214914698844
C           5.97852998253886   -4.34779085688542    0.01569656602424
O           5.14281437699104   -4.49860858568438    0.85490020347679
O           6.80741213595147   -3.30782117175340   -0.03268075601047
C           7.72136517221848   -3.38901225605915   -1.12616076898088
C           7.09096728199392   -4.40404392848640   -2.10288303886916
C           8.05059457308706   -5.18150232470563   -2.99937999318730
C           9.31039143752893   -5.64526982049600   -2.28123244815747
C          10.03075451472176   -4.53218476023915   -1.53222465656814
C           9.12518765218644   -3.73553550764276   -0.57929191798421
O           9.84366450697206   -2.53158423058729   -0.33410065787823
C          10.76040748771871   -2.29442294822289   -1.28711730107353
O          11.46915122205051   -1.33548048129193   -1.28932243933172
C          10.71708440478403   -3.41233371892356   -2.33848596721457
C           9.94074419370318   -2.89621570986956   -3.50124861506070
C          10.35181712716420   -2.87339481438106   -4.77587137996253
C           9.49457910959334   -2.47606534670791   -5.84660749808556
S           7.78435496991294   -2.34261318578179   -5.59643305069500
C           7.47241201908697   -1.94782147056999   -7.25180501127692
C           8.66452083228450   -1.90475869385377   -7.97543043300466
C           9.81331284512880   -2.21522270349448   -7.18039822629706
C          11.08720413274775   -2.20543262740299   -7.77766300002607
C          11.23612690546732   -1.90233023049884   -9.10810309000422
C          12.56800908418777   -1.87795451797422   -9.71053194752755
C          13.56496551691126   -2.68324655520444   -9.36874349873658
C          10.08735299960230   -1.59067659313945   -9.90360734419000
C          10.25070887009307   -1.27067333675244  -11.35809843603390
C           8.84280115769568   -1.60099043875323   -9.34198663937739
C           6.14085563466546   -1.72710347855656   -7.72237735483904
C           5.03957494232448   -1.83405351663385   -6.97665215697374
H          -1.65284922139700   -5.29820793995666    8.22152466456040
H          -3.34521097854202   -3.07938472332284    8.27886421130524
H          -5.52446401275784   -0.73226683126574    6.53343454984844
H          -5.20065836683556   -2.06612158731980    9.26355223727188
H          -5.84150936926220   -0.39017808629974    8.90865995602976
H          -7.06696360078493   -2.27653603476281    5.28967141792070
H          -6.51398940607766   -2.96053191792481    3.75568600657289
H          -5.83985896735209   -1.43899966005603    4.33998909607983
H          -4.94400150419837   -4.64164291012391    3.84482650828401
H          -3.87006986745853   -6.51041883177470    3.17335470141684
H          -1.62576830090842   -8.37537567932466    4.09347179272016
H          -3.43310625064011   -8.23992745275423    1.61016340455372
H          -0.47552489545710  -10.37764080844767    0.22093971777338
H          -0.44847196627222   -8.74781166439929    1.93883252008695
H          -0.09530212238605   -7.37432689947072    0.03231963543357
H          -1.19114867206056   -6.50561779070001    1.10176503096406
H          -1.86201287105478   -6.37751850123651   -1.30770902345288
H          -3.11039585471560   -7.05050951278291   -0.26801859446190
H          -3.13430246647442   -8.38886408370465   -2.17026903138157
H          -3.31081619246151  -10.08749291361558   -0.58400283255240
H          -1.28463396788155   -8.20219216654002   -3.54655616948701
H           0.72883023508657   -8.92947216417466   -1.35667522669636
H           0.56440916417358   -6.76363093700469   -3.51290601485090
H           6.85033497533274   -6.11420652449396   -0.75620326749769
H           7.76442666456999   -2.37979604724244   -1.54713194118864
H           6.39832514870521   -3.85821336249907   -2.74981717347172
H           8.32261698772990   -4.56488265255374   -3.85394864381430
H           7.51701817455455   -6.05053344515884   -3.38870252173027
H           9.99587587087396   -6.08584557401639   -3.00666626190435
H           9.05687721118627   -6.42273590086032   -1.55621565400824
H          10.81364430982767   -4.99430483756239   -0.91845716845288
H           8.99870712915737   -4.23578367042219    0.38661130966968
H          11.72652586328750   -3.68329987721236   -2.65077657849549
H           8.96392568853263   -2.49377773280907   -3.27682902334988
H          11.34876492530235   -3.19440864746348   -5.04324062161065
H          11.95653632381724   -2.40902660386431   -7.17215080336701
H          12.72300464709302   -1.14623912747507  -10.49172425934579
H          13.45072176580845   -3.45225607912344   -8.62290299122335
H          14.53156835550954   -2.61554723047265   -9.83756988706959
H          10.82029118275669   -2.04987158483136  -11.86229663863605
H          10.78246232829846   -0.32751379838169  -11.48573066724242
H           9.28035705881592   -1.18045890046562  -11.84018663025617
H           7.97857345668347   -1.36962541136156   -9.94695707638247
H           6.05840279320461   -1.46316698018196   -8.76815044726666
H           5.09246076383271   -2.09533339570918   -5.93206034817972
H           4.06146459065435   -1.65690619678031   -7.38622838743528
