97
 SCF done       -152.650881157799          0.000534833724
C           0.87878451255554    1.67450792930629   -2.04419066095225
S           1.83525468200260    0.27255919399637   -2.30269106753770
C           3.03572520684192    1.21781842100453   -3.15013442354075
C           2.67204054418254    2.54144627828849   -3.20245669424508
C           1.44246339357297    2.79519261658201   -2.57100500294039
C           4.17680527093925    0.62199650341156   -3.66774975140349
C           5.16231294891728    0.07178161823837   -4.11466626801872
C           6.30709369860200   -0.52103030758870   -4.63880317479927
C           6.53160761509789   -1.85136372192726   -4.55702089056763
C           7.66220138769549   -2.57155934476353   -5.06381276183157
C           8.93417798983919   -2.09326000071833   -5.23269131267976
O           9.93573526331986   -2.83924512904965   -5.83626732152172
C           9.59146509207375   -4.10873047362256   -6.18603973638074
C           8.29020955964338   -4.63387784024826   -5.93556462393819
C           8.15471103439648   -5.92007816548781   -6.34122477202533
S           9.61728313693619   -6.51360516018657   -7.03812127058662
C          10.41651426607906   -5.00665827339412   -6.77739729579470
O           7.31094975357830   -3.88178203690008   -5.36439126417976
C           9.38957070310932   -0.82959305665970   -4.74369080978636
C          10.59205140438485   -0.30335722640518   -5.07580796415507
C          11.11622964423726    0.91745238657113   -4.57285668101605
S          12.68695402198655    1.44748098983365   -5.11152292710146
C          12.58930736755868    2.88245235626995   -4.12542025065066
C          11.39768436304477    2.92210957334957   -3.43117825037706
C          10.57627589790958    1.82414395262891   -3.68077642105372
C          13.62926839932210    3.79708111364080   -4.10976034694088
C          14.57314053510955    4.56046469468223   -4.12835159864699
C          15.67345252032245    5.41477045008746   -4.16488360008650
C          15.71433927442672    6.58969035201990   -3.50353895312570
C          16.77437329284669    7.54856060060082   -3.44574608793831
N          17.84334813859943    7.67553844926439   -4.28321955807122
C          18.20886496720943    6.93866114376176   -5.46315642694480
C          19.15109507818880    5.78167306329970   -5.13289705560022
N          18.62861233314599    8.68471777321240   -3.92459442667923
C          18.09566875649472    9.23543499358815   -2.84311839984035
C          16.90811734875718    8.57149338424874   -2.49720115031583
C          16.01896623602808    8.85123003762475   -1.33379359278760
C          16.33951509241986    7.92969781274122   -0.15479327519102
C          18.74337538012719   10.38883950182026   -2.15279092792122
C          19.81169395530896   11.04257719010187   -3.03524315983150
C          20.57710946866065   12.08309633065765   -2.29468796707265
C          20.64251487631622   13.36508493192654   -2.66099482074577
C          21.38437892133605   14.39104939670219   -1.97599670247148
S          20.99139213906022   16.05102677197098   -2.26711687211891
C          22.17792600005729   16.61543909496618   -1.13191465813565
C          22.86167997485159   15.55096424550791   -0.57026284879418
C          22.42037900354737   14.29040329423726   -1.06868663578568
O          23.00174272150700   13.09057717567368   -0.71289964977106
C          23.80500734533594   12.51137418285168   -1.73499737998353
C          24.29597428541360   11.16038826782052   -1.24327759118389
O          23.83930596896626   15.78238411509681    0.34068076149571
C          24.13933680279351   14.80294251742155    1.32799705235739
C          25.54524608359998   14.24909844757598    1.13393237642030
C          22.31585781637614   18.03063202705425   -0.92625220063874
C          23.24770875052744   18.62603457682615   -0.18486002028695
H          -0.04843201789219    1.58413833823838   -1.51378486112669
H           3.27561041884737    3.29218159910075   -3.68020845512938
H           0.99358029528072    3.77057704842163   -2.50958458980844
H           6.99607164575851    0.13984027166279   -5.14710546298522
H           5.75559595771217   -2.48624005878044   -4.14901997466474
H           7.29073185024146   -6.54681866667205   -6.27141785622359
H          11.43652448696408   -4.87316125620051   -7.07057942582172
H           8.74613512046746   -0.32600924944913   -4.04112147174684
H          11.21243183967457   -0.83227733374338   -5.78578985804302
H          11.14540442200312    3.72889958118316   -2.76573874557075
H           9.61194257614644    1.69280822577446   -3.22351765008373
H          16.50302698063009    5.04809597327007   -4.75102938427272
H          14.85416209692036    6.85397745076399   -2.90060430960809
H          18.72468729751098    7.64402590718614   -6.12026415874548
H          17.30407728977465    6.58894199305382   -5.96531568105541
H          20.06433727101311    6.17189574237060   -4.69112678879449
H          19.40386556450867    5.23662636955766   -6.03847270861815
H          18.69708629386933    5.09369312455188   -4.42292834143242
H          14.97325785043766    8.71629417270252   -1.62279535553581
H          16.15000460331137    9.89021610141587   -1.02456357765109
H          16.19287442271527    6.88884697652898   -0.43588503779086
H          15.69436997857381    8.15590922520173    0.69120474780242
H          17.37434492492805    8.05864505259817    0.15448572321400
H          19.20311630378414   10.03595549642697   -1.22367449743131
H          17.98428407081565   11.12716944058584   -1.88058583431195
H          19.33785760139710   11.47174065173353   -3.91892145066659
H          20.49225623120887   10.25552453878847   -3.37061887376850
H          21.09012408904788   11.75033928620886   -1.40325051237548
H          20.08412693189036   13.70719863214918   -3.52361064689360
H          24.65361795937237   13.17614123502958   -1.95533534478656
H          23.21685663460664   12.39405313606061   -2.65420178224387
H          24.94201228494310   10.71085271171171   -1.99201233043411
H          23.45149285214543   10.50144546357211   -1.06080542035835
H          24.84984436580770   11.27624117392292   -0.31520986221966
H          23.40246960322100   13.99778488013538    1.31609141952429
H          24.07831998565804   15.32419376588161    2.29189162439554
H          26.26611878374939   15.06307370398304    1.12493505486797
H          25.61562567916700   13.71253845743331    0.19228977522496
H          25.78622041170238   13.56916515398859    1.94677115313359
H          21.57421178141150   18.62580446037358   -1.44501002408789
H          24.00377500702983   18.06332095420773    0.33038521270378
H          23.26961802807003   19.69681324986644   -0.07896712289382
