68
 SCF done       -115.350323557682          0.000917588580
C           7.19960755588076    2.49375248705955   11.29775852682184
S           7.87799027783156    3.33703697816334    9.96464427709291
C           7.24800396330329    2.14228484230349    8.85644946606653
C           6.55700416256387    1.16400349235231    9.52910725437263
C           6.53313785584506    1.36971388787922   10.91927978654283
C           7.45965147060077    2.25162187375244    7.48947062174267
C           7.66372196209515    2.36625845646220    6.29832734164775
C           7.86267875238434    2.46325870249379    4.92558135799588
C           8.53317382576203    3.48690456583039    4.35003928505147
C           8.74940921144160    3.62845482456358    2.95026918528279
S           9.60635651254421    5.02374344520807    2.35437302705569
C           9.43510985136722    4.47761636930402    0.70743683096794
C           8.75260135693689    3.27879918709272    0.65399702115414
C           8.37012116197699    2.80599246936156    1.90725768918915
C           9.93138341975077    5.21345247407603   -0.35400933833787
C          10.35844269190602    5.87929594138848   -1.27653877963249
C          10.80526212819339    6.61425233533798   -2.36650370157456
C          11.44720074165092    7.79955734539713   -2.24622822416022
C          11.88840896320419    8.59394249354920   -3.34103201486905
S          12.69337110340375   10.10795698683270   -3.03033231151677
C          12.84127984967247   10.42688684311583   -4.73711614673463
C          12.29810792076004    9.39931666806278   -5.48067654775125
C          11.76751442053123    8.37489013999914   -4.69963213784225
C          13.42259179653880   11.59061187015930   -5.21360318679435
C          13.91983501487006   12.61806940337077   -5.62650531149877
C          14.44825446166512   13.80082264471411   -6.14082844788032
C          14.30793358041472   14.14594727908697   -7.43421984851388
C          14.83405198141637   15.35665750984026   -8.03299677224570
C          14.16807477846879   15.94940264188811   -9.15586991559904
C          14.74546187481275   17.01188535758725   -9.81411136969900
C          15.95718094754713   17.56591798047903   -9.37233105000873
C          16.59083069018562   17.01762981501115   -8.22062512683271
C          16.01372691479419   15.90893092818956   -7.58233113715558
N          17.74767997165358   17.53776386330090   -7.75686123562528
C          18.24659546561993   18.55211810842571   -8.41071307727543
C          17.61890370125651   19.09419259746790   -9.55203073519358
N          16.49953177021571   18.61562234419880  -10.02483660733712
C          12.86746350451158   15.46991764966436   -9.58203584740968
S          12.43037918280411   15.49243780817042  -11.26533261732096
C          10.84633174530484   14.86381542731705  -10.90169991920203
C          10.68691924946491   14.67594603670105   -9.54954362638564
C          11.82619589536307   15.01540968166261   -8.81040985103643
C           9.92221541990038   14.61064360806929  -11.90873327001884
C           9.13033013311746   14.39053787503701  -12.79825913457809
C           8.18329638858604   14.12024773635003  -13.79662538549114
C           8.40430963001324   14.32286625593495  -15.09382563212441
H           7.33527371344766    2.88432256354976   12.28693571032726
H           6.08762018294014    0.33530318562115    9.02980443881564
H           6.03930439967243    0.71083194312634   11.61119394629040
H           7.44264953498088    1.66609679266355    4.32622123015851
H           8.93791125962011    4.26796570607004    4.98016811751816
H           8.54482143792419    2.77615908445063   -0.27414182546962
H           7.82992719847954    1.88714529233592    2.04904696972577
H          10.60552483763212    6.18762208061349   -3.34094557139962
H          11.63905019292563    8.19364414457044   -1.25693216112018
H          12.29386041901223    9.40741983582600   -6.55640307001984
H          11.30345338016047    7.49877044079177   -5.11571689070261
H          14.94520112108706   14.45314605287606   -5.43422894407066
H          13.76217924637575   13.48134101431940   -8.09124778718724
H          14.26431972107334   17.45912306902275  -10.67122412640208
H          16.54802338152150   15.47504965597026   -6.75132085098796
H          19.17311086679341   18.96432753512212   -8.03322431229302
H          18.04766824636196   19.93614780059822  -10.07927833283893
H           9.77458044714383   14.30534044388645   -9.11732098641852
H          11.87084246710897   14.96075530319712   -7.73698401965224
H           7.23773497938002   13.72410092550566  -13.44490911500180
H           9.34192071880941   14.71452520385305  -15.45104070118200
H           7.65340898952659   14.10265469383769  -15.83260508136092
