79
 SCF done       -141.479290641204          0.000463610635
C           3.46478039977691   -3.54512196754828    0.38453929870019
S           3.64080403931184   -2.07500712787801    1.25164913875373
C           5.12859570304081   -1.72626977427022    0.40604482359965
C           5.43214545440418   -2.72469880223146   -0.48848458917358
C           4.48097111099225   -3.75819772003725   -0.49577195468621
C           5.84547813220983   -0.56798630016092    0.66526402889871
C           6.45653042709701    0.45163613655151    0.91220755036614
C           7.17086137355237    1.61543864446337    1.16952212937409
C           8.25884117978971    1.97056628584144    0.44924768358084
C           9.01789455716972    3.16415254490133    0.62098043637128
S           9.66090350605606    3.90862612973445   -0.80812513997234
C          10.18567033057521    5.32802906782827    0.04079238200603
C           9.97830823854684    5.17388154456437    1.41519373598509
C           9.30449030944796    3.94355495932477    1.74477496301304
C           9.11901197450578    3.60770059081728    3.11405857921991
C           8.67294495385167    2.34108097081555    3.55133205962613
N           8.37849855800062    1.32883852805117    4.00437824024458
C           9.50455360036912    4.49621967561438    4.10061079189481
C          10.16981429213569    5.67975099281843    3.78121258048133
C          10.45423014112269    6.00234480227122    2.46728027522798
C          11.34042462861497    7.08291017118535    2.25984294636793
N          12.11377770745545    7.92777437538374    2.19231159121760
C          10.64009802563989    6.42811792532353   -0.73591730022001
C          10.47903963798205    7.73337563658970   -0.41233935957898
C          10.91157059711235    8.82238797638565   -1.21271550865599
S          10.62123832341171   10.44669583094950   -0.66158592728467
C          11.35668487385774   11.10712355428618   -2.09561996296819
C          11.80011616389939   10.09980495958309   -2.93513472692150
C          11.55621265567811    8.82542210406800   -2.43835070471371
C          11.43664934583908   12.47021146616939   -2.30172465981966
C          11.48294183899383   13.67525936266098   -2.46483605201662
C          11.52734142203628   15.03987848521879   -2.68774011917052
C          11.34280914437038   15.95552812042085   -1.70046526418035
C          11.34134886346536   17.35217092305082   -1.91017166647758
S          11.40172909208584   18.01129720580213   -3.51744318598013
C          11.31936020701957   19.65306775753699   -2.96211581960809
C          11.26738831686679   19.69121278049275   -1.55985298014473
C          11.27240716417074   18.38541097303196   -0.96352079045502
C          11.22016936248064   18.27274792044610    0.45061283125357
C          11.22673489176467   17.03917990113056    1.13747934249301
N          11.22758193915728   16.08729829765688    1.77855222666177
C          11.16302446227087   19.41254609247097    1.23280821356914
C          11.15738292431425   20.67989158951978    0.65409143625855
C          11.20854644122065   20.83434427732051   -0.72001151101142
C          11.20438807396799   22.16031206402137   -1.20364088130100
N          11.19790719959266   23.26721041799071   -1.50866427045490
C          11.27949981807787   20.73190629537841   -3.87052769546681
C          11.26709602904657   20.59935655344008   -5.22251745838238
C          11.17971820516985   21.68268017001873   -6.13051858020965
S          11.09809434878164   21.36133192029490   -7.84303075672040
C          10.97651974337519   23.06103820959069   -8.19699041487872
C          11.00725636826339   23.81248421848821   -7.03888957134933
C          11.12030442804702   23.04355781706307   -5.88440789773323
C          10.85388509784491   23.51635069293526   -9.50148372926843
C          10.73475006956310   23.88857567895284  -10.64904698054310
C          10.59356957070732   24.35340252791655  -11.96345905193945
C          10.55074079276656   23.54872355891811  -13.02406632164029
H           2.61485088663826   -4.16895431593874    0.57893093098915
H           6.31015162635901   -2.70261665160806   -1.10866140964016
H           4.54674813396253   -4.62551593303388   -1.12820254515168
H           6.78916036598130    2.24303344308656    1.96312148263987
H           8.53517677831452    1.36110968710305   -0.40230802397153
H           9.34567121314129    4.23668046135558    5.13655768303194
H          10.52386015286114    6.32318604968991    4.57257004629630
H          11.05558295569756    6.16997829139184   -1.70066512844533
H           9.96399040270862    8.00006844221442    0.49953174367009
H          12.28691127066484   10.30516513782633   -3.87207890211984
H          11.83575371954095    7.92637014736049   -2.95701750498728
H          11.72076348503299   15.36378972284096   -3.70414374768990
H          11.18875131517852   15.60607958978431   -0.69054310179063
H          11.12468117477553   19.31486812210077    2.30731292605177
H          11.11467569429887   21.55582043473198    1.28381944938913
H          11.23537564319817   21.71917037034131   -3.43981125444332
H          11.30671019845041   19.60812800341883   -5.65707623862294
H          10.94500295958320   24.88617352988118   -7.04851778947205
H          11.15689298425417   23.46349618371114   -4.89543039303841
H          10.51639276817890   25.42865783226611  -12.07254173036483
H          10.62675984758294   22.47920692632108  -12.92205577150385
H          10.43902036711324   23.93809753169204  -14.02095717293269
