108
 SCF done       -171.619985175542          0.000380163636
C         -10.19706545978313   -0.79489752604536   -4.57206249647705
S          -9.37135215350886   -1.04677719640883   -3.06342346426738
C          -8.07382385777129   -1.79078938779135   -3.88492055973274
C          -8.28102066577077   -1.83695089755585   -5.27023921959082
C          -9.50787635763787   -1.25961530323525   -5.64854778861173
C          -7.14631986963997   -2.47677345957573   -5.91626032144838
S          -6.93354719695801   -2.75675082236956   -7.51157031259085
C          -6.24247392653899   -2.80897172773995   -4.82024863655218
C          -6.80846666054345   -2.39111092798920   -3.62261850662944
O          -6.00465626550965   -2.67894441115162   -2.58126993340115
C          -4.91313920949867   -3.29148394299735   -3.12184698033758
C          -5.00523138377362   -3.40405498330635   -4.49178205237821
N          -3.97366059887139   -3.74125675547310   -2.22673041762025
C          -2.60222533580230   -3.76869350074502   -2.48481527554837
C          -1.94906623751593   -3.20643110036305   -3.53792228200734
S          -0.25291378401555   -3.46997134677250   -3.46134802999115
C          -0.41046599789131   -4.35217182566060   -1.99240434582133
C          -1.70902928243528   -4.44646262766557   -1.58521694288583
N          -2.18407851251523   -5.09050051565355   -0.46131426762246
C          -1.42512150492636   -5.53789133163754    0.58588826302927
C          -1.90633315872005   -6.33479138389515    1.55348359956694
C          -1.19286684947710   -6.79523122074534    2.72203215204565
C          -1.81040647272551   -7.74573566437093    3.55048213029358
C          -1.16865487232166   -8.19688776808893    4.67638011396092
C           0.10531634907558   -7.71054771808193    5.01659411410202
C           0.72862509725031   -6.77169275636970    4.20652957354003
C           0.07955360602992   -6.32523457146116    3.07380331213171
C           0.52621293829445   -8.34059122089677    6.24662651323212
C          -0.48569198619132   -9.22358187925812    6.66797797095156
C          -1.64425892154148   -9.20423053256612    5.69719290685734
C          -1.86410571266312  -10.58853668533642    5.05946433783297
C          -0.61711737702552  -11.12393799657712    4.36629170658336
C          -2.94306215704590   -8.74038844076024    6.38168581926529
C          -2.80984408110953   -7.36866630035418    7.03189076889399
C          -0.34814997294458   -9.95747222029261    7.81688387996505
C           0.81930579128778   -9.82665412554842    8.59249672130256
C           1.81707904479011   -8.93688440456091    8.15705697653867
C           1.68402876793950   -8.19963717641384    7.00026767110917
C           1.03144091429639  -10.55931248091893    9.80624589246763
C           0.19253968037601  -11.47506786752957   10.36111399732931
C           0.46496271741829  -12.15611060633142   11.55977752872789
C          -0.37067875177452  -13.08783436187881   12.12344785013954
C          -0.16819612713347  -13.80994186521940   13.32339171825052
C          -1.17324040565789  -14.67613717001347   13.63552423785394
C          -2.22917602415231  -14.69141934961687   12.69974898740869
S          -1.90524633519025  -13.55979081051289   11.40436794711581
C          -3.37837143677003  -15.45989755328681   12.72366956271512
C          -3.76995093902413  -16.40990992911597   13.69152001890124
C          -4.96095359748677  -17.01228101394659   13.42104758691698
C          -5.58508591279968  -16.57902148310144   12.22413965152478
S          -4.58307001617401  -15.35445089108845   11.45955667950371
C          -6.77471383617355  -17.04993357924576   11.73133454034193
C          -7.44647751268018  -16.67399715159619   10.54896040170811
C          -7.11682380302703  -15.71376031586123    9.59277146228479
C          -8.11275949737235  -15.72096245201019    8.58128414780256
C          -8.25416683613619  -14.97675298002015    7.43425606528859
C          -9.37330369114193  -15.23253922390429    6.62011832550851
C          -9.78931705053995  -14.66948750029538    5.42685170314634
C         -11.00808098302659  -15.30197066891789    5.01004159646868
C         -11.33957074110579  -16.25462131697624    5.95150158544445
C         -10.34572582143374  -16.25071780395643    6.98262216630748
C         -10.21170718345725  -16.99089454640709    8.12325351022386
C          -9.08884094330977  -16.73533192695737    8.94407287897102
C          -8.67736120043064  -17.29790616805637   10.13203248914303
C         -11.76827993827520  -15.00929698785116    3.81944759599519
C         -11.45599525889719  -14.09405862899019    2.90568521011895
H         -11.15251057996846   -0.31062302463868   -4.55334128096984
H          -9.85924339800204   -1.19232531208383   -6.66181564623480
H          -4.29775306913026   -3.86688812440652   -5.14605082008137
H          -4.22957211815534   -3.57494103239662   -1.26149118763889
H          -2.35995437198478   -2.63380919956035   -4.34286688413413
H           0.46456638002962   -4.76401255135126   -1.53457748334499
H          -3.14787558447375   -5.39233928819953   -0.49096721993407
H          -0.41141994672003   -5.17140543491508    0.58818516701076
H          -2.92882289954663   -6.68363392418296    1.46535692585445
H          -2.79212345319491   -8.11624912162395    3.28945105130860
H           1.70676778217892   -6.38979584252985    4.45989244687212
H           0.56285806807697   -5.58630174236696    2.45329730378879
H          -2.67756679192701  -10.51405098375045    4.33427440572344
H          -2.17409872352878  -11.28822578816889    5.83869341407012
H          -0.29734875732757  -10.44792604647276    3.57622878296255
H          -0.82158930072940  -12.09741913275308    3.92618397971788
H           0.19968932984339  -11.23173866291080    5.07649084227649
H          -3.22166847102693   -9.47534625666380    7.13993164879721
H          -3.74046783899574   -8.71181169124944    5.63568656534732
H          -2.03313281393973   -7.37965708320994    7.79332134162207
H          -3.74867557975652   -7.08319238437973    7.50130202138433
H          -2.55145680389512   -6.61612629586605    6.29000743603923
H          -1.13147554251194  -10.63070763163182    8.12885430899842
H           2.71334559883380   -8.83452121212820    8.75301676514762
H           2.46615758811720   -7.52362609736831    6.68741047946717
H           1.96232812899211  -10.35283303194892   10.32161986798004
H          -0.74461998001700  -11.71968918146554    9.87953264397702
H           1.38984534742295  -11.93920100635395   12.07860200118215
H           0.71655368748621  -13.66568134735143   13.91851466737582
H          -1.18133507624215  -15.30267564832095   14.50957646424588
H          -3.16602266478205  -16.62401611834428   14.55507829368929
H          -5.41602284821381  -17.76208697875823   14.04466576174723
H          -7.25607920294107  -17.81756859161716   12.32593702101793
H          -6.26288134046411  -15.06471111832876    9.60087621115744
H          -7.53414505596743  -14.21944566605268    7.15835484793544
H          -9.28422588510585  -13.88487844113083    4.89396003270652
H         -12.19852483471490  -16.90034868235518    5.92656971018745
H         -10.93014400870525  -17.74973104269521    8.40136691164909
H          -9.17596003503007  -18.08090823274518   10.67610639111674
H         -12.66328116397330  -15.60636219252761    3.69291061132582
H         -10.57822338155912  -13.47638354701259    2.98773101335226
H         -12.07335562934773  -13.92907701888336    2.03961114985005
