78
 SCF done       -152.378695812588          0.000555582732
C          -5.48345455037584    6.90017621949444    6.72503455339721
C          -5.14241517787163    7.83646861399319    5.79239121953434
C          -5.88064296813409    8.92640968591048    5.25365697133061
C          -5.32856049284860    9.68070106832744    4.27331424834430
C          -4.03084707204103    9.39091727159196    3.75610448923756
C          -3.27478193406574    8.37657009941442    4.24709011743893
C          -3.78158628522555    7.57956851916318    5.30739133227485
C          -3.29638315962174    6.48278316102384    5.98439779990191
C          -4.36670454694586    5.99483141038989    6.88615814049302
C          -4.30886196217295    4.93473896607730    7.70125107175642
N          -2.08478960568020    5.84318877003484    5.95698586723476
C          -0.83873663309967    6.31797074307097    5.75622814580694
S          -0.47240709416975    8.00406938625302    5.60209504673144
C           1.22556353634431    7.61681231608577    5.55797641341570
N           2.11588495270117    8.67273823629352    5.40117610666424
O           3.30887603650365    8.41666598079074    5.35909144988687
O           1.63081256801006    9.79326046602567    5.31675659980485
C           1.48385858040118    6.27530805022359    5.66914424981637
C           0.31627076393409    5.50500029945134    5.78183792095041
C           0.24956091805580    4.08095826462978    5.92333478284954
C           1.29121563452986    3.26496514281690    6.19045722587003
C           1.19124562062886    1.86254097166895    6.39918128895166
S           2.66540463679480    0.92914673006292    6.37243024816946
C           1.80968420851562   -0.54546888200363    6.65959616679853
C           0.44778886323348   -0.30900307624038    6.79507375030525
C           0.09585606497823    1.04911160000512    6.65732530202914
S          -1.53453792626984    1.69361328061962    6.87263254945698
C          -2.38580200588752    0.33621380272952    7.76080102416580
C          -2.69820835952200   -0.68931336168919    6.70622939787403
O          -3.76603360278946   -0.77764730197141    6.16213908737631
C          -1.51544683869662   -1.56234778018348    6.31246431475997
O          -0.36422573232489   -1.36845451727639    7.10221449421534
C           2.41289383497254   -1.82473086866735    6.72682229466408
S           1.40603156739612   -3.22842126069007    6.96451538143641
C           2.77639865287062   -4.28379314797395    6.86435863373904
C           3.94846183322722   -3.57093928766393    6.66956335692532
C           3.74492393298697   -2.17739529943703    6.57537275182495
S           4.98696170454882   -0.96192025656236    6.29630898074507
C           6.34648568421271   -1.97725577240783    5.59946135470952
C           6.99717060479969   -2.65483619057832    6.77403519184030
O           8.01990007059129   -2.27651423775584    7.27829973907908
C           6.21117635768626   -3.83093338879258    7.33924529150696
O           5.12777814022741   -4.25403439634162    6.54139418387083
C           2.69459031129282   -5.69644749117179    6.97973611070600
S           4.14983316219520   -6.65127392470528    6.92986332926856
C           3.25413785253769   -8.09242379781169    7.16064085576701
C           1.91093424163055   -7.87594418835087    7.25423900524681
C           1.57751188208746   -6.49515461841872    7.13955192414678
S          -0.04337647491495   -5.81137697110507    7.16282259055911
C          -1.05765659507158   -7.28015220115516    6.73079886716467
C          -1.18188961244808   -8.06507864694460    8.00748543640336
O          -2.15493700628794   -8.03703168220161    8.71256229315719
C           0.06883084619493   -8.84283332344978    8.39385621281748
O           1.04965215346163   -8.93308062733135    7.38555667455288
H          -6.41642336098630    6.80706606737835    7.24541175227522
H          -6.87138319189189    9.12583382122343    5.63378406123597
H          -5.87188677545240   10.51304856148703    3.85087875139069
H          -3.65668059659622    9.99912336670839    2.94651790380155
H          -2.31220684617285    8.15684352488151    3.81431962699604
H          -3.45093458028530    4.28438975059789    7.77020514592422
H          -5.14298297138267    4.68497893491973    8.33452888288130
H          -2.11576587015855    4.88636210808960    6.29374307670975
H           2.48342801461305    5.88289704073332    5.64924082674539
H          -0.72394515686471    3.63023321480962    5.79425999737098
H           2.29325536227108    3.66295748975073    6.25456324936946
H          -3.29687119466123    0.77595094078956    8.16266779744253
H          -1.73828999067949   -0.03548480975187    8.55189121448015
H          -1.30441296864887   -1.41270029000898    5.24438902144633
H          -1.79766632446342   -2.61036194979937    6.45438053389311
H           7.02664252562395   -1.26962132729755    5.12912487473123
H           5.93324128569765   -2.67525855635416    4.87447278145534
H           5.88542511302751   -3.57321548352882    8.35671107499142
H           6.88296392113560   -4.69176448255560    7.41134767515299
H           3.74489700210472   -9.04302607027822    7.20383949090800
H          -0.56483595752086   -7.83065981556745    5.93245867947111
H          -2.02302544832471   -6.89224823360330    6.41172907957082
H          -0.22663235603182   -9.87235930577000    8.61944851134477
H           0.47680078454165   -8.40321705413680    9.31534415339795
