81
 SCF done       -155.565438442041          0.000440635664
C          -6.33172335849941    1.55241471994303   -5.89289769455164
C          -5.42091699117626    2.56407463742860   -5.83658890714567
C          -5.41916100520852    3.80270826771461   -5.13394009026999
C          -4.42627109780442    4.69219785168442   -5.36727609084784
C          -3.35953499848673    4.40300068234135   -6.27608902722995
C          -3.28036960827884    3.21730286113480   -6.92864829944903
C          -4.30907363965210    2.25382530296338   -6.74098319836716
C          -4.56285643681912    1.05156085945301   -7.35848083565737
C          -5.85460221992524    0.56438830803686   -6.84404182851864
C          -6.44796521329603   -0.59481224574009   -7.15408486518356
C          -3.76851060827732    0.36347978541309   -8.34826602377578
C          -4.27086114471976   -0.11583176693170   -9.58303261808375
C          -3.32934925264548   -0.72988533524117  -10.35342776748232
S          -3.59737451077103   -1.41642739922836  -11.93510814556635
C          -1.92721239349240   -1.98624228045043  -12.35501973489964
S          -1.77155422884263   -0.76813091234760   -9.57098284296283
C          -2.42434797837744    0.06888372281669   -8.19693144760307
N          -1.70133761816923    0.31224637733189   -7.05337518279810
C          -0.57341494304455   -0.29056379165341   -6.62164956751914
S           0.37806611325362   -1.34223571301186   -7.61684939779249
C           1.38427629633919   -1.71393285382361   -6.24477268309323
N           2.43568517108568   -2.59827481408773   -6.45727591895029
O           3.15403151746494   -2.87693974736130   -5.51200666018670
O           2.55853702271086   -3.03639817933183   -7.59318650153607
C           0.99305245244111   -1.07421365160908   -5.09719988638041
C          -0.10671785796466   -0.22745840590149   -5.29495577268118
C          -0.70779694688113    0.56950383555059   -4.25687476535438
C          -1.18484731928259    1.82042194282408   -4.42414819809358
C          -1.84650785050205    2.53858973291203   -3.39064765367208
S          -1.96571641488945    4.30918113254433   -3.47638468351277
C          -2.88940335814243    4.24791661105768   -2.03563145100591
C          -3.01626846234727    2.92308597078164   -1.59703463270885
N          -2.42986515958899    2.00263678147011   -2.35306134564550
C          -3.83945740344268    2.85080470276086   -0.35150604506599
C          -4.17569942552526    4.29961807114715   -0.14973111498302
C          -3.59583485814895    5.09557806579627   -1.15768647770095
S          -3.93929638148775    6.76235203119731   -0.99569017529920
C          -4.89137116009394    6.42033723294427    0.44442871273356
C          -4.90311348501925    5.04766868149064    0.74381472179896
C          -5.58348635180629    7.34745238903772    1.23056536160070
C          -5.67509159094135    8.71470170548850    1.13090483030625
C          -6.42808534255694    9.58004554156503    2.01614131960689
C          -7.27080799416411    9.20445802254765    3.03223221336680
C          -7.98049613434745   10.11118564964625    3.84669101692545
N          -8.58564036995428   10.79475803057981    4.54314690122854
C          -7.57246214878095    7.87898344621524    3.40620104571615
N          -7.87581363559485    6.83227037355550    3.77065907464866
C          -6.15643539594969   10.95827087488835    1.61667750222468
C          -5.29637170834914   10.94415262410395    0.49101198138676
C          -4.98518688076186    9.54628654879134    0.14179911043613
O          -4.28738323918344    9.17367099481808   -0.78598119473131
C          -4.85415999843366   12.09099696339466   -0.12112858549212
C          -5.27796929475186   13.31572784547975    0.40622150306191
C          -6.13539475696703   13.32151241297555    1.53157219441475
C          -6.58521650901230   12.15981626964519    2.14793517377816
S          -6.53320382509948   14.93957472722833    2.02397027069630
C          -5.55441168942387   15.57770530997110    0.72987730103147
C          -4.96065145271106   14.62987337809987   -0.03373435549406
Br         -5.40905582499748   17.43447892480853    0.50905902550891
H          -7.25687335177647    1.47303073645502   -5.35543012564419
H          -6.22585505752035    4.02116876542021   -4.44979833112420
H          -4.41893636155825    5.64989621841492   -4.86759572396912
H          -2.60668278340406    5.16178986783547   -6.43068443241174
H          -2.47780111298530    3.01134955023875   -7.62356299554783
H          -6.01542389988125   -1.28477552807085   -7.85926409753349
H          -7.38477414468096   -0.87864368344078   -6.70409583646334
H          -5.28645591167470    0.02497605682243   -9.90320824276025
H          -1.99865615212214   -2.43799484547487  -13.33910261881763
H          -1.59751879629797   -2.72217121146686  -11.62688187681620
H          -1.24828394192926   -1.13859512041692  -12.37935305617294
H          -2.22544615639073    0.81497327003163   -6.33894125522045
H           1.50326260010759   -1.19938171174585   -4.15947620212332
H          -0.74275464437513    0.13299092750137   -3.26860446795468
H          -1.03475719623853    2.36102324765870   -5.34904667502535
H          -3.27399944101886    2.43611470491105    0.48499753758898
H          -4.72780864365052    2.23223684534993   -0.48989156170531
H          -5.43894341368750    4.65811798208660    1.59129299628070
H          -6.11702487612937    6.88568532022466    2.05252792917314
H          -4.19959823926449   12.04610141085735   -0.97737386513293
H          -7.23591508059827   12.21948852607046    3.00401103485087
H          -4.32419449357647   14.84675556613681   -0.87209572745290
