79
 SCF done       -145.870425252043          0.000405049242
C           4.78102350428370    6.23933082230112    0.82709812440701
C           5.62674110918252    7.01708334054057    1.56604189566776
C           6.70383080827254    7.85601968265860    1.17053122807665
C           7.45861720527656    8.45994610558602    2.12169074124775
C           7.19966724608653    8.26081742660137    3.50854322137235
C           6.17126793709959    7.48571634491788    3.94205503479029
C           5.32874919117117    6.85206231808191    2.99178972404255
C           4.27253323933939    5.97392018684464    3.09916149153161
C           3.88377629212958    5.55840488600027    1.73394711587199
C           2.87851052067950    4.74092193458490    1.39721873975773
N           3.65045549396835    5.44753738006189    4.20156588671372
C           3.48768871141921    5.99344540645570    5.43094759881361
S           3.48496198451056    7.71420974208557    5.67706970290679
C           3.14306294161760    7.45199920420699    7.36091666750439
N           3.03330214389196    8.56831803724866    8.18547448623915
O           2.80349199778312    8.38007163505192    9.36980953265991
O           3.17661308616461    9.66135042404636    7.65758334017201
C           3.03392957940465    6.12749742174257    7.69920928598243
C           3.22904440036302    5.26742696470605    6.60728994464187
C           3.24066099732108    3.82728831632343    6.65794839160516
C           3.21302503232213    3.09581625488455    7.78461625861560
N           3.30017948064696    1.72323596339816    7.86853259574467
C           3.51392241597726    0.76371311958892    6.91227338126424
S           2.49981853023071   -0.65256344242577    7.08481463051128
C           3.29894055110767   -1.40710422473851    5.75061546266942
N           2.87364293138554   -2.66736601701096    5.32869241086898
O           3.44741455469816   -3.16588599820990    4.37533884573989
O           1.94520853620379   -3.17322956231965    5.93666762571705
C           4.27917651067823   -0.61855673670426    5.22024598896700
C           4.43201923668066    0.63112973218445    5.86201441236931
C           5.39078585269572    1.54691920799367    5.30113860315046
C           5.76578150886311    2.75934432925891    5.74941425954654
N           6.45371494348488    3.68865396228321    5.00650021940565
C           6.69556949126182    3.82250766245073    3.66757429261860
S           8.04586525348857    4.88707129734287    3.34159978541458
C           7.80855221120685    4.69647386828339    1.64012006566562
N           8.64007491122564    5.40717571334427    0.77667026494072
O           8.43465840986715    5.30920832644561   -0.42072673821357
O           9.52182838815766    6.07841406874880    1.29044530075870
C           6.77824945652213    3.84937703541123    1.35080533221596
C           6.10569907329440    3.33421369496257    2.48597067279832
C           5.02813196034682    2.41129507236339    2.24678139543277
C           3.96652647233819    2.11377734137944    3.03686298171804
C           3.04883639334754    1.04437242054355    2.88019987373616
C           1.84590731124424    0.89771431619944    3.56437825217056
C           1.15010406081506    1.74262747036971    4.46040810388092
C          -0.00288973244995    1.30815984369500    5.03622886948580
C          -0.55003605493765    0.02600787710219    4.74615411446984
C           0.04740836953007   -0.80589161672747    3.85795858069778
C           1.25811151312670   -0.39618749925921    3.23425083794624
C           2.06506550588785   -1.02995635121734    2.33352421889340
C           3.23979989600006   -0.20542679224300    2.11392863943955
C           4.33621633635714   -0.66036163906381    1.49324191164664
H           4.76190408174012    6.13481333460294   -0.23952423891995
H           6.90914851060721    7.98264204196564    0.11834148659101
H           8.28976900849767    9.08841923635399    1.84224247598074
H           7.85328721856867    8.73773313761819    4.22279020672524
H           6.01321404304308    7.33151466784708    4.99827619216252
H           2.22259048704093    4.27405558900929    2.11342644131294
H           2.67136065039400    4.52703656781831    0.36284447742930
H           3.15921942436227    4.57973087722916    4.02567822014267
H           2.81900852215628    5.81840969077888    8.70483809656277
H           3.30994535463737    3.30092141628210    5.72223358474972
H           3.12031061666263    3.56561743141068    8.75204171931872
H           2.88043936190399    1.34441692743585    8.70815583343576
H           4.88258912721502   -0.93985846921199    4.39089415509964
H           5.81474224997629    1.20917289267885    4.36918868717016
H           5.54326544678116    3.09950310391385    6.74754719757278
H           6.95734080466283    4.37371721909987    5.55525912420952
H           6.49653915473379    3.61719230254154    0.33959784484943
H           5.08762575820888    1.93521789890545    1.27901631727753
H           3.79325310774323    2.73394315378441    3.90266412490712
H           1.52297125837969    2.73055068273476    4.68754968265416
H          -0.53143590777893    1.94550803088811    5.73025243769195
H          -1.46186324064443   -0.26631910432065    5.24425049322953
H          -0.36416772040451   -1.77497602131851    3.62152242114944
H           1.93430496878646   -2.00941704006532    1.91642553036313
H           4.32808087894199   -1.63393459264899    1.03115098001446
H           5.26380912991059   -0.11685725386857    1.45173290467355
