69
 SCF done       -118.852687021007          0.000506864743
C           6.75289137213628   -1.42266319540701   -4.66279111525059
N           6.04130430081428   -1.28045672214388   -3.51591996866871
C           6.46131099999277   -1.79065756573559   -2.23516401374307
C           5.91366872683463   -3.19810570919339   -2.00211243518365
C           4.78667016351152   -0.83124212242060   -3.84017592153154
C           4.72433261181059   -0.68288131110768   -5.20996117787007
C           5.97699345741530   -1.04545857576574   -5.72663522083864
C           3.73173629603421   -0.57227850569982   -2.87143466428354
C           3.85004510857160    0.27726337235392   -1.81815826844553
O           2.83565207092179    0.46299711165989   -0.88259584360177
C           1.67097728684819   -0.18039263750660   -1.17546619283342
C           1.53410463826031   -1.02561987468843   -2.31671975468336
C           0.29653304922501   -1.56802794100913   -2.42527796212994
S          -0.72704978051343   -1.05623801142609   -1.13557690463830
C           0.53300795475720   -0.10021686128683   -0.44440527908839
O           2.57037179879208   -1.25660632083923   -3.17310387163587
C           5.01417742706623    1.08289088568719   -1.60080437859943
C           5.17045498741663    1.89207281424971   -0.52954267828016
C           6.32969989839207    2.69107585974242   -0.30545332981910
N           6.45601197746424    3.60835022633672    0.69559548612579
C           5.47407470172553    3.88076388371779    1.71589308977047
C           5.82866584096891    3.18080772215889    3.02619635412702
C           7.72184699022860    4.13193379980897    0.66927277825149
C           8.40860096294663    3.52944765281582   -0.39645216442494
C           7.53867156159108    2.65553114304499   -1.01375784569854
C           8.29223088765827    5.10140952267229    1.54087645119551
N           9.66582999302359    5.09098855376649    1.68881594035781
C          10.15484566245588    6.08715783634656    2.54355943736597
O          11.32355300782439    6.21453323051999    2.81768946314905
C           8.94832492222103    6.80044428142774    2.92473111372671
C           7.82147847767287    6.16630283198762    2.30072654337658
C           6.64854746171130    6.95695382098225    2.61938087201919
O           5.47506547134232    6.85228317474920    2.30322998909870
N           7.13944552234375    7.97772006206105    3.42492368887628
C           8.49760796411180    7.90663892967943    3.60527959290699
C           9.20697026097346    8.89482649162466    4.38106205938229
N           8.48432739279020    9.89593975573626    4.89858319119512
C           9.15137543992354   10.79669162462024    5.59844301715531
C          10.52007253480861   10.72862663482653    5.79926454902102
C          11.18940519913631    9.63961888963239    5.22311539767543
N          10.51435286833661    8.73727151245384    4.51979309267312
C          12.62168246636247    9.38753784943742    5.32249325741678
C          13.49695769930571   10.12385809056720    5.99492065550809
H           7.76494198777360   -1.77759950854723   -4.64094533849857
H           6.11728358275920   -1.12228023056629   -1.44189456724071
H           7.55424201480856   -1.80857486459117   -2.22218335403818
H           4.82653801375326   -3.18543460244379   -2.01782289607972
H           6.24494362280783   -3.57434462978815   -1.03815407679135
H           6.25957380453857   -3.87324528449353   -2.78137274894653
H           3.87628817498582   -0.32877312126132   -5.76105470634634
H           6.27159702418549   -1.02923427368484   -6.75677972379108
H          -0.06728672080361   -2.23178767025297   -3.18111585852384
H           0.36248407430538    0.45779238296970    0.45213571352416
H           5.76072637529318    1.04252259084984   -2.37755658420713
H           4.37741300530065    1.91553270626339    0.20236727972722
H           4.50154778311789    3.53772130444146    1.36305202341951
H           5.40390877519972    4.95947624905801    1.87027706846244
H           5.86965812352704    2.10146199174955    2.88888372807160
H           5.07658411076499    3.41068292120961    3.77519341740805
H           6.79390783809489    3.52221862007217    3.39276962989585
H           9.40971108717563    3.75522711262403   -0.70813298127350
H           7.74745539658486    2.04761982555220   -1.87088859602488
H          10.26362320066418    4.39256826563122    1.27664372994105
H           6.57835227126789    8.71832400830084    3.81690503083066
H           8.55736900794578   11.60339363967063    6.01075633321651
H          11.03616913253156   11.48092152252048    6.37106573119373
H          12.92864544193923    8.50491158876577    4.77871760100502
H          13.21777466848936   11.00572804893930    6.54790741674567
H          14.54181056775171    9.86586919664058    6.01785969912894
