79
 SCF done       -146.879009591606          0.000596114739
C          -2.91692796056321   -0.24951788809796   -0.90855780907139
C          -1.81652775331658    0.48620969971217   -0.77134022637174
C          -0.57047066012055    0.19596424523697   -1.46153317732522
C           0.59616755769144    0.82659263294604   -1.14588049232181
C           0.78897074756068    1.62463126658402    0.02531927989212
C           1.66380121593989    2.64752543863794    0.20213406878940
C           1.62809728939722    3.10160782469113    1.57005550644541
C           0.78318680889263    2.33783002367686    2.31066231289590
C           0.44137225142668    2.46194360358988    3.70934367250247
C          -0.62303566704280    1.73657499894093    4.26272016730726
C          -0.94186627407843    1.87136234938215    5.59550311102931
C          -0.22926343258572    2.73700552002215    6.42004889208548
C          -0.71833899897176    2.98052290938248    7.79732736962399
O          -0.87841613366104    4.09422844719443    8.25174368926297
C          -1.10991508307861    1.75339134382591    8.53353625618362
C          -2.28861546809091    1.63298277612763    9.20722802825693
S          -2.46694250360115    0.09871389383329    9.95098756034842
C          -0.90118919267846   -0.37152618193000    9.41619179918055
C          -0.29349352678736    0.58764406572517    8.66541332726098
C           1.08909889824041    0.45146614006186    8.12326034368287
O           1.32674762849680    0.48690662077806    6.93542227666542
C           2.14851840820171    0.23838338827605    9.13832291707481
C           1.93799418609983    0.46279013126258   10.49727902664310
C           2.97193779080183    0.28545128576449   11.39646907157414
C           4.22417180737652   -0.10948100179195   10.95408999348108
C           4.44419504477928   -0.32531711760678    9.60254637557712
C           3.41425125858567   -0.14909679293838    8.69973058739063
C           0.85407183973746    3.45919673406989    5.89068228855220
C           1.68362991402220    4.28438182501913    6.74019266819068
C           2.32024178011178    5.44413318569648    6.45208040505660
C           3.10789932535021    5.87787825989210    7.58040016708778
C           3.01061832180405    4.98117188829588    8.60110088034667
C           3.67424018727679    5.03786994160698    9.85302689417308
C           3.64692770107338    4.06557978207756   10.79423040164678
C           4.32555599994993    4.09879302302963   12.06130184538577
C           4.95763327451603    5.18512343673338   12.55080677623535
S           5.80234899709424    5.33011193912557   14.06882857112491
C           5.57312357966314    3.68429308499206   14.64686612640310
C           6.06065770431367    3.20427396636905   15.81873641418071
S           5.64587582225359    1.55311142144351   16.05718973986613
C           4.80283816682652    1.51185451123878   14.55655818922761
C           4.84080338579219    2.70829368736283   13.90943677718359
O           4.23354181500459    2.88688961443272   12.70773874936544
C           2.05836020815956    3.90845792283044    8.14211858439327
O           1.67326596922388    2.94786290563001    8.76332567191646
C           1.17193199671792    3.30802415378381    4.54567444993356
C           0.22955836405273    1.29168310662896    1.38855505862398
O          -0.41834964846628    0.31435029971364    1.66763661300060
S           2.06770449025263    0.74197265886647   -2.16191119074291
C           1.59971618208473   -0.55650709600550   -3.24505796417303
C           2.41536135392528   -1.15359193687156   -4.15088815730692
S           1.60169608684534   -2.39206640343553   -5.02804330834441
C           0.14541510552243   -2.10398421875494   -4.16145698819544
C           0.28579082976321   -1.10321391511087   -3.24826441081515
O          -0.75081863194267   -0.69310855091521   -2.47726021566936
H          -3.83152576693319    0.01862070387400   -0.41071171373241
H          -2.92995084013596   -1.14012203975609   -1.51241043835125
H          -1.81950298018847    1.37310446229021   -0.15822946481220
H           2.27958046499828    3.09223691140997   -0.55918395209629
H           2.19519199013383    3.94860068240541    1.91106260985573
H          -1.19253701239566    1.06416287237716    3.64226322859263
H          -1.77340917927042    1.31618115480559    6.00548194372432
H          -3.07209869249701    2.36138997353534    9.27569226430007
H          -0.52280223964204   -1.34156713351761    9.67252737200404
H           0.97600707184297    0.80145641488305   10.84879253831120
H           2.79974476182360    0.47126644134813   12.44562106879011
H           5.03097698186029   -0.24092890332036   11.66031685817308
H           5.42105417341569   -0.62788454661713    9.25498617257434
H           3.56522633106416   -0.30680391580172    7.64186959333698
H           2.24536183018285    5.99836164098601    5.53321144503638
H           3.69024658532274    6.78228501378902    7.58738657595187
H           4.25906202956774    5.93534104269568   10.01515947118946
H           3.09507851800715    3.15550754788189   10.60849164736042
H           4.97153769515884    6.10475092385243   11.99626670263208
H           6.63794293762529    3.73062998800389   16.55056506223154
H           4.32667568964703    0.61005883476200   14.23341938162634
H           2.03052911454267    3.83516166894952    4.15968245382465
H           3.44255719090649   -0.93166373902257   -4.35364825205033
H          -0.73456501487178   -2.67809085091973   -4.36446153320134
