84
 SCF done       -182.583676771952          0.000872972431
C           4.47209152442062   -8.73385051321619   -8.79055740206474
S           2.80431485241379   -8.45093910281370   -8.55451872471010
C           3.09355312138111   -7.04944664508790   -7.57012731000863
C           4.45718826782646   -6.82157649454312   -7.42042536616847
C           5.24004132078397   -7.79491802546755   -8.14811617753070
C           6.65369055494884   -7.74643274311877   -8.08419138412820
C           7.25800799132032   -6.79793183853696   -7.31516244329412
N           8.69466216794356   -6.90095113134322   -7.11412714912851
O           9.37426416916803   -7.10933502890617   -8.08635378764954
O           9.07220762189553   -6.85607642904947   -5.96715699089716
C           6.48578209344242   -5.84087688061096   -6.59345265655481
N           7.12524265175377   -4.74995717231147   -5.89317671149982
O           8.18435453000390   -4.36604908002924   -6.33017290637495
O           6.52214225264669   -4.26864597245047   -4.96127782925245
C           5.11900346947490   -5.85676236579729   -6.63658467357240
N           2.02431976849429   -6.35885493625721   -7.05432507314847
C           1.85931494720970   -5.00427045783370   -7.01349789883727
S           2.92143285049359   -3.91809687925456   -7.84156284658714
C           1.91368898974717   -2.58883147988937   -7.35144390955526
N           2.30646411574604   -1.30654888707446   -7.75534396182859
O           1.61066396878413   -0.36909625271955   -7.41628699470581
O           3.31975858898425   -1.23673409473124   -8.42845474978626
C           0.82807392116486   -2.96548176649457   -6.61290660288082
C           0.77231145692967   -4.35867392564682   -6.39834601068179
C          -0.23256748395865   -5.07589116772527   -5.67918861177729
C          -1.40165902182631   -4.57600929710822   -5.20027698625206
C          -2.42539009704272   -5.33073946964609   -4.58039214697513
C          -2.54846005972597   -6.69334240390968   -4.47875503538788
C          -3.64095414114142   -7.38937386125952   -3.89167528151826
C          -3.56792948289832   -8.74712899325974   -3.96222282393684
C          -2.40305419505076   -9.22135338514821   -4.60458670021408
S          -1.41150740746920   -7.87161820737049   -5.11268664131396
C          -1.96940898733285  -10.50398135328844   -4.85732244247956
C          -2.56455457776954  -11.75600832409655   -4.58296417931148
C          -1.83363365565739  -12.82926634516727   -4.99384584311499
C          -0.60990530475430  -12.48603007732641   -5.62263010001058
S          -0.42646146222526  -10.73158411484924   -5.65735272098510
C           0.34065403591145  -13.30615094228092   -6.16014481080692
N           1.43643764050217  -12.76275292089082   -6.75993160283170
C           2.53906719106638  -13.25306805713464   -7.36172226013278
S           3.44408876442716  -12.07162114855686   -8.27144473105013
C           4.57481612765246  -13.30140047354258   -8.74107270750858
N           5.63638180698537  -12.87672863180999   -9.53215282672322
O           6.45264105978863  -13.69486131719987   -9.90951536756470
O           5.65947884591601  -11.67446782194954   -9.78473096072805
C           4.27419318181766  -14.53268865688346   -8.22695336557905
C           3.12121978691527  -14.53765421757552   -7.41366436884517
C           2.66270400290543  -15.66836101953958   -6.66375214207403
C           3.17423210766808  -16.91916447780844   -6.75429227187491
C           2.75078274319671  -18.03580310469230   -5.98294354972964
S           3.84139854568340  -19.36356532922983   -5.75017785451871
C           2.77262827847683  -20.18571076988677   -4.70645802343798
C           1.59101809475300  -19.50253672467367   -4.53562801689512
C           1.55605315188725  -18.27195461305093   -5.28994644228773
C           0.36276254943983  -17.54006736685385   -5.32736287738485
C          -0.70907259880495  -17.92138992717150   -4.55932522182405
N          -1.94342837455146  -17.21759913961726   -4.74457513367402
O          -1.86087928430251  -16.05587702421329   -5.10421443555333
O          -2.97520619278259  -17.82809788885582   -4.59114555318643
C          -0.62504670994098  -19.06673103277415   -3.71571679461356
N          -1.64879731049057  -19.34005841750843   -2.72619161923507
O          -2.09975246929643  -18.37940917548978   -2.14669014884016
O          -1.91059339551126  -20.49685501454014   -2.50644495769904
C           0.48464996896406  -19.86038140094305   -3.73029770407101
H           4.80717310407811   -9.57635583949962   -9.36402899243165
H           7.23907578694102   -8.48297567808796   -8.61278305861736
H           4.57421015683864   -5.12412929835378   -6.06234804142041
H           1.18248696175468   -6.90184041022246   -6.89831264495556
H           0.11778377231068   -2.25432368399931   -6.23412678887763
H          -0.01016826860530   -6.11592783033802   -5.50236886082122
H          -1.60042852905557   -3.51860791121862   -5.30179449435756
H          -3.25051020395957   -4.76464353852174   -4.16757663610834
H          -4.45572387746758   -6.85278125486367   -3.43827072037571
H          -4.31393001600765   -9.41756583750662   -3.57491309748707
H          -3.51939588019872  -11.82594928217559   -4.09395750981906
H          -2.12577787032583  -13.85749152521915   -4.88117510692369
H           0.20165804484984  -14.37171345400693   -6.14600297728888
H           1.37285370784278  -11.74894196463944   -6.82025009429400
H           4.89502478787691  -15.38811407541660   -8.41793332164912
H           1.90575131176064  -15.46904449741920   -5.92385183201023
H           4.00554784808877  -17.11188466453524   -7.41702443892893
H           3.05812554519287  -21.12190273356807   -4.27084338813515
H           0.23915653812492  -16.71337871665734   -6.00762020527413
H           0.52615621123612  -20.73963608556812   -3.10583296705631
