114
 SCF done       -183.698964912078          0.000482988314
C           2.92414034836711  -17.21102008595906   -0.92574384408334
S           3.38247619159828  -17.95063571415652   -2.38509350592949
C           5.05462078797774  -18.04453421622983   -1.92557435281684
C           5.23606313202870  -17.47158020348731   -0.66057181004111
C           4.00172839102679  -17.00861472278515   -0.08694124462876
C           3.98360283091834  -16.44013479649205    1.20134287835906
C           5.15203056081103  -16.30671105282741    1.90784571361498
O           5.04781466824200  -15.76544650735845    3.15274556248956
C           6.20289184386706  -15.64070305591364    3.94570916978069
C           6.37647617938832  -16.71679783799205    1.32324365879998
C           6.41903373359198  -17.27859875244196    0.07946704602377
C           5.91625827187918  -18.71758857785622   -2.83277782864596
C           7.18173489728011  -19.15096190925732   -2.64530428428488
N           7.83097809951574  -19.84395843467291   -3.63448486844533
C           9.07575365606910  -20.35726608967622   -3.59949346683565
S          10.04475933397035  -20.24957262729982   -2.16206773039963
C          11.27150097116042  -21.22235058084040   -2.92412282327289
N          12.41600868817742  -21.49702110130070   -2.19217470393798
O          13.27949178294906  -22.18935997441253   -2.71209935863503
O          12.47936092907945  -21.02216076205472   -1.06370664526553
C          10.94053372158386  -21.60045267176505   -4.20084358394173
C           9.70112260776484  -21.09835885183688   -4.62653920445350
C           9.14201223744986  -21.36215872016850   -5.92606684933060
C           8.23827284472810  -20.55758390852088   -6.53444629580659
C           7.47405266432461  -20.82347184137731   -7.69404381165537
C           6.36245728757518  -20.06837164807038   -7.95888104997991
C           5.39129810377082  -20.19174138465140   -8.98518192318709
C           4.32286532009075  -19.35466963817266   -8.85874074237487
C           4.37927209341923  -18.51104385088199   -7.72685162429723
S           5.86827357417889  -18.78871072665613   -6.84846295649578
C           3.47599495495989  -17.60665721895425   -7.21673386328076
C           2.17659021872099  -17.25320483144479   -7.64769669175811
C           1.55019245411974  -16.36936667935857   -6.82720282153357
C           2.30999450699366  -15.95303222015351   -5.69423937496273
S           3.88373851640947  -16.73364135424807   -5.75323575415717
C           1.86235656879228  -15.13908551413556   -4.69610629925342
C           2.54258409905981  -14.68691864036172   -3.51914085727365
C           1.77033717155897  -14.13794584130040   -2.47500445823907
C           2.37312152177911  -13.71268366188261   -1.31837671958404
C           3.76504872480264  -13.84818604867213   -1.16135895320959
C           4.54472402037169  -14.36212951896617   -2.18825640122958
C           3.93488243312366  -14.76600393842708   -3.35428394685545
C           4.13051496394452  -13.39727708116659    0.15619200540457
C           2.96812213525575  -12.99327401532740    0.83610020092788
C           1.75204868826849  -13.12655461555464   -0.06343295861374
C           1.20200788197544  -11.70290373233324   -0.29886422281920
C           0.01573992037269  -11.59075403788812   -1.24765658984385
C           0.69838323443329  -14.12045110828157    0.46324227749292
C          -0.00164283324028  -13.74287898370554    1.76244697845423
C           3.06357544099954  -12.49057309642864    2.11030538654265
C           4.31154999927198  -12.42382809384531    2.75342617138539
C           5.45713522988288  -12.82127678733404    2.04902718737012
C           5.37629234770015  -13.30186712284171    0.76186537946118
C           4.35938430519639  -11.94307099359254    4.10833601276580
C           5.42386630229227  -11.99248327774677    4.94026891528410
C           5.43276012615260  -11.52135526801758    6.27495717865913
S           4.08100262654268  -10.69906171084274    6.97807480016215
C           4.88985223597480  -10.42920960459234    8.48403900451746
C           6.16268861908637  -11.00563507738272    8.46502321582667
C           6.47634097700241  -11.61698915678850    7.20752313420655
C           7.72032778869209  -12.24101388628505    7.02468374114351
C           8.63036522293222  -12.28407945077621    8.05469968751173
O           9.81298059320902  -12.90549314400963    7.78325471761393
C          10.79065566018508  -12.98771709505766    8.79109048284206
C           8.30138978219583  -11.72285359464486    9.31162314212224
C           7.10171486923462  -11.10462276896360    9.51267709594721
C           4.19109307401711   -9.67435346051539    9.48344972428396
C           4.72670399415848   -8.98523166806290   10.49166130747122
H           1.89658693070383  -16.96411796199434   -0.75239258134210
H           3.05827690520163  -16.10686350309836    1.64147148244562
H           5.87053847692469  -15.17502553834036    4.87245686664012
H           6.95348843039833  -15.00153379079576    3.47138129184399
H           6.64642024166199  -16.61668481286125    4.16919663975757
H           7.29950486775850  -16.58503402649326    1.86507746656986
H           7.37166999213048  -17.56051350638407   -0.33752719217501
H           5.45675776364072  -18.94301380380680   -3.78903960139732
H           7.74309826893471  -19.00609250431010   -1.73783377852092
H           7.28183959842358  -20.05096846253477   -4.46283420032292
H          11.59221583579807  -22.20243749978831   -4.80797419142480
H           9.47211907157380  -22.27067999514430   -6.41080966916397
H           8.03367885029285  -19.59033751523588   -6.09141384656179
H           7.70852448862203  -21.66777206239413   -8.32510519386740
H           5.50819043404194  -20.90960269729139   -9.77818171737227
H           3.49150250475197  -19.32567778999244   -9.54117441490506
H           1.74121000330015  -17.67336629254783   -8.53724068383382
H           0.55329526840454  -15.99702779012004   -6.98835838130150
H           0.82962496792471  -14.82193682462682   -4.78781775212963
H           0.69831575403564  -14.08840387619961   -2.59931147756220
H           5.61457678199008  -14.45080991868202   -2.07343738995084
H           4.54889718416312  -15.13502543831290   -4.15915574559817
H           2.02346314444261  -11.09666885878775   -0.69068056427381
H           0.92538509283670  -11.28285386394760    0.66966171014544
H           0.29170820698253  -11.89860599931400   -2.25223075921228
H          -0.31171415697638  -10.55382515698474   -1.29278930888011
H          -0.82303695188669  -12.19360457372374   -0.90945319175489
H           1.19928519205352  -15.08168183568164    0.60299648860101
H          -0.05313699431845  -14.25828253182341   -0.31664238917216
H           0.69601112417668  -13.74399822078043    2.59466466890279
H          -0.77899630992936  -14.47404861464080    1.97731990559788
H          -0.47034309563831  -12.76480657090878    1.69315300696755
H           2.19245225779129  -12.13821239903767    2.64218382350514
H           6.42580497646922  -12.72529771665261    2.51513761334444
H           6.26685132002502  -13.59795632496456    0.22683794786577
H           3.43422054420259  -11.53164400864725    4.49524479097514
H           6.35459345288499  -12.42582657062216    4.60508093700797
H           7.97941555610564  -12.70267119721633    6.08594126556647
H          11.63634397681266  -13.50075142963669    8.33567192633415
H          10.43896893711718  -13.56874425576532    9.64992215614460
H          11.11056964779311  -11.99594338258686    9.12683761066000
H           8.99912421323067  -11.79106851603908   10.13117835982001
H           6.85871075288823  -10.71587472342070   10.48781434051281
H           3.11661727150648   -9.64419419551990    9.34410815946824
H           5.78762139636204   -8.91144307001678   10.64780455311672
H           4.10281369532453   -8.44321582743124   11.18062366360675
