90
 SCF done       -167.301861504130          0.000922421396
C           6.41606274297638   -4.54420344703068    2.74088027478405
S           4.77958122984754   -4.34954178688233    3.18770167088278
C           4.41904006279604   -6.03776973201721    2.85211792054356
C           5.56179890733896   -6.67925029729917    2.41695987269398
C           6.71270465805261   -5.81680248113568    2.35121845262312
C           8.00598375396433   -6.30640740988311    1.91394184471834
C           9.11921769926520   -5.58761605539085    1.83309270028028
O           5.77812759374450   -7.96751763866880    2.05578727878811
C           4.77305062195420   -8.94355290200553    2.14302685467801
C           3.06883431497784   -6.47962488069480    3.03678009830498
C           2.10578438766371   -5.69836741010806    3.55889715439144
N           0.80872567870983   -6.12592455495109    3.72009217739461
C          -0.26367101438487   -5.38809995801934    4.09205541947267
S          -1.60884554087669   -6.23232222914532    4.80632476302614
C          -2.43598006309139   -4.71853014634699    5.02270039115484
N          -3.70913682213749   -4.74055904405026    5.57553027391704
O          -4.28352529447321   -3.67146500108965    5.73685045990848
O          -4.17642041056165   -5.83375672581475    5.86699385764970
C          -1.71346108183540   -3.64767128744972    4.56782842933197
C          -0.46688488801858   -3.99715929804598    4.00779280520327
C           0.39582198180101   -3.06954283270739    3.33571186194382
C           0.23304950143047   -1.72105438713696    3.38963359207770
C           0.98282732970976   -0.77480733280293    2.66878113172981
C           0.63757217364910    0.55666246086761    2.65320743083432
C           1.21716509101118    1.62465876790087    1.92899466152097
C           0.54435221224807    2.81014163589935    2.03863177989820
C          -0.59660694064733    2.74423462437982    2.86005002859211
S          -0.76856933094948    1.14052501709014    3.53036834937023
C          -1.58979855968632    3.67570802870408    3.12518265160935
C          -1.81263538908183    4.96596522747763    2.60937936168345
C          -3.01756058946331    5.49411725418975    2.98393725631398
C          -3.79811241803501    4.65334162625677    3.81315276963529
S          -2.89379520016388    3.20759151543568    4.18812232301269
C          -5.13850079101563    4.82065570825068    4.09991963839698
C          -5.97786791796510    3.90567090531194    4.75309086670667
C          -7.38114010325075    3.90404426430754    4.49175097771249
C          -8.21199667362216    2.77439940195727    4.83853529698580
N          -9.50602254495445    2.77093270978989    4.49832159844299
C         -10.01369834601213    3.80499318436319    3.86948483403394
C          -9.19478350255154    4.92896378751249    3.54093933653295
N          -7.91322001577698    4.94400944636904    3.84654223930411
C          -9.75203847649127    6.04675101988592    2.87601388372936
N         -10.22572122563743    6.93602762364973    2.32946727467518
C         -11.38574408563190    3.79680484050589    3.51799377608626
N         -12.48969629844519    3.82706987032649    3.21302480821242
C          -7.69080187905595    1.62664710295525    5.48429950191064
C          -6.38796567407461    1.77917973861349    6.01010172030826
C          -5.54592724500308    2.88699277509306    5.64439959776342
N          -4.38551399210310    2.85497271689645    6.29096986808195
S          -4.35189243411585    1.56871889861120    7.25990100656909
N          -5.80672900607738    0.98811549624335    6.90855185328060
C          -8.43079230241057    0.42231255788684    5.60644527644487
S         -10.16291538573826    0.44476979740204    5.59257343564350
C         -10.22978644543447   -1.26160217266387    5.87873753521008
C          -8.94861559149815   -1.82622829247253    5.91733638779178
C          -7.92267996534234   -0.87121189330843    5.74862839700295
C          -6.49787724838568   -1.15818230474011    5.53596376222404
C          -5.88413925572285   -0.86222876709186    4.40021229615023
O          -8.84426623974165   -3.16534866180433    6.05844268677643
C          -7.59650915624575   -3.76071284774461    6.35072443444332
C         -11.51534863930759   -1.87814328693826    6.01094062148982
C         -11.75662571089812   -3.17668291647274    6.20507085608684
H           7.07243199912725   -3.69976570429863    2.79363118806892
H           8.01208794240549   -7.35263115408654    1.64272429687263
H           9.15453798907742   -4.54401102572864    2.09486986754851
H          10.04261270992062   -6.02571290202301    1.49726931586563
H           4.36199167813345   -9.01073445533272    3.15471318470412
H           5.26483322468996   -9.88422779709302    1.89501767611853
H           3.97240470624950   -8.76268234145094    1.41892506533582
H           2.80534123993915   -7.47666773494306    2.72128590421430
H           2.31699877053064   -4.69979500350135    3.90429547129891
H           0.65454476056774   -7.12378381152581    3.64237933939992
H          -2.10634937155674   -2.64899835771347    4.61186514187514
H           1.17107852578590   -3.47238351863327    2.70129261926085
H          -0.54611759061245   -1.31248976155121    4.01865774636728
H           1.82442672384439   -1.10081380028486    2.07370704049857
H           2.10140863625941    1.48264181570812    1.33278942403999
H           0.83380045983939    3.71969211332957    1.54254345771620
H          -1.11006056934500    5.45697325722594    1.95954960858752
H          -3.38448105369992    6.45225680686836    2.65955177847742
H          -5.63435402264799    5.66923253609163    3.64581549026197
H          -5.94777302862563   -1.63682511566213    6.33140135761078
H          -6.39759972228061   -0.39250251091770    3.57610739023705
H          -4.84245575391230   -1.08855824955139    4.25543113895822
H          -6.86390528549526   -3.58905457757432    5.56035403506262
H          -7.79896188245985   -4.82806035410848    6.43096798649976
H          -7.19760152123099   -3.39902713698054    7.30126152070799
H         -12.34338252580282   -1.18343973631457    5.93949700405386
H         -10.96328452099278   -3.89769932055571    6.26958052875225
H         -12.76519276333312   -3.54159218188097    6.29434575587873
