96
 SCF done       -182.037492919981          0.000909492546
C          -4.99946875797038    0.08543775065477    6.60198296849255
S          -3.94297741820308    0.02676935700706    5.28055224137228
C          -3.35545463616395   -1.54294050123723    5.72183431332660
C          -4.00225160631810   -2.01186645865500    6.87506562516736
C          -4.94613956125373   -1.05291372703228    7.38056362563180
C          -5.69102586204037   -1.31434431457427    8.56927647765862
C          -6.65635641101367   -0.30411873779487    9.06957920656228
O          -7.19140273436943    0.51799605405324    8.37520921001191
O          -6.91887916664221   -0.34068802926055   10.39174487182651
C          -5.51107934926603   -2.52746684237147    9.18897767262804
C          -4.62921230391223   -3.48615754853230    8.67652355467237
C          -3.87988662348631   -3.25846075529968    7.54413530346119
O          -3.05391556194759   -4.20388930034924    7.05393280964745
C          -2.33003219146660   -2.08713170044810    4.90253178937817
O          -1.67728383850331   -3.24093246023150    5.18773931682810
C          -1.79955131819489   -1.56881124140058    3.73473402098496
C          -1.88239910655978   -0.46490219676242    2.78433701168524
O          -2.59006147061548    0.51202373910501    2.76452393709583
N          -0.91259628975588   -0.77537741120793    1.83327050558079
C          -0.20471009821411   -1.95532020560240    2.06515792672070
O           0.66970595934741   -2.38767935159219    1.35914235473726
C          -0.78818372379395   -2.46588151559053    3.30597495828169
C          -0.74187436048010   -3.48722228913581    4.22984265586106
C           0.09872724377813   -4.63548137043104    4.28808219850704
C           0.04374774957765   -5.55578397026997    5.26968520818210
C           0.88228227997464   -6.73636709620893    5.27893312808499
C           1.14849808869712   -7.38371811369092    4.10593565794081
S           2.10276162920554   -8.79846180510629    4.26454862364389
C           2.20260535290413   -8.53401238229401    5.97745884281209
C           1.50384962028583   -7.39475332468375    6.40640497562316
C           1.56232466829185   -7.02942913732266    7.77455372676760
C           0.94541862567725   -5.71845791583616    8.18942196181555
C          -0.49354903391200   -5.85671787929301    8.69121305453756
C           2.22826022029607   -7.83963000312879    8.68565371856956
C           2.18674730695149   -7.57785645177901   10.16570699795711
C           1.15913111144389   -8.49222960899695   10.84153665897635
C           2.95256700313700   -8.97212845168316    8.23826064160481
C           3.86501438108167   -9.84054404562374    8.94720863835629
C           4.46936541503736  -10.73027809266353    8.10729313049502
S           3.96951570318974  -10.62863852290019    6.46754297714421
C           2.93966144546044   -9.29131754109058    6.87224161104932
C           4.21412471767477   -9.84061200571071   10.35410341631174
C           5.50033863592037   -9.88092785641620   10.77056268444053
C           5.95631105940654   -9.93271260172584   12.11304897945791
C           5.25462878058347  -10.20138053929056   13.25529161768041
C           5.81907376561114  -10.23801731187653   14.56131702683409
C           4.95834708947952  -10.60926234350426   15.54308746236418
C           3.65144271517776  -10.90014110271089   15.08145834749009
S           3.55221247418615  -10.63872041163973   13.35334151288974
C           2.58076913179412  -11.35819860074773   15.81651173469326
C           2.52975492181558  -11.61050659509828   17.20821753204009
C           1.34231595646694  -12.11366114937235   17.63425451668791
C           0.38001640397404  -12.29575495878595   16.60474211865769
S           1.04384792257202  -11.76489370847957   15.06971988722912
C          -0.86818911608091  -12.83009972168682   16.76650080473703
C          -1.83327451928240  -13.06636552786562   15.77081305597855
S          -1.65630085999016  -12.67471422731820   14.06854063218606
C          -3.20105813802171  -13.29348438297558   13.63580509875509
C          -3.85002444609758  -13.79210202458350   14.74058641030600
C          -3.07481106092137  -13.65688016904732   15.93188397188196
O          -3.73424855366302  -14.15805167655881   16.99803002210184
C          -4.91733176025430  -14.61109472677637   16.50206132634422
N          -5.82799147913984  -15.20110609843036   17.40929734008651
O          -6.87848808273793  -15.59800523538763   16.93946803110617
O          -5.50811493483693  -15.26903517562726   18.57640148158774
C          -5.05540183568701  -14.42370586182436   15.15269767925209
H          -5.63476302196142    0.93349101843128    6.76080859547170
H          -6.38794577730276   -0.99927272046785   10.85768990153342
H          -6.08481543054186   -2.79933650815358   10.06506388059274
H          -4.54388124026854   -4.44001089091149    9.17993899652575
H          -3.10693866386288   -5.00184806415136    7.59696205451879
H          -0.73216182041902   -0.18646560304816    1.03305220378833
H           0.82011593382903   -4.70341511988934    3.48719195862931
H          -0.68864646958108   -5.42688025462480    6.05149669902683
H           0.78011237500565   -7.11607279807405    3.13490158958639
H           0.96676417163373   -5.04612379108754    7.33101812849452
H           1.55097919015299   -5.24975217207988    8.96643405011717
H          -1.07884135780266   -6.46784548491227    8.00626212719677
H          -0.94949263536756   -4.87218536781576    8.77498250721415
H          -0.51828713136634   -6.33006142351802    9.66892082140187
H           1.92677739414033   -6.54392291385235   10.38255302447467
H           3.17619754842422   -7.76167084473976   10.58837746606039
H           0.15224809496970   -8.24053914923834   10.51763258814239
H           1.21089159049245   -8.38783768979094   11.92295344502592
H           1.33226063999629   -9.53415914027971   10.58514171054991
H           5.17276773410228  -11.48996828597470    8.38802709952066
H           3.41352132052061   -9.83425728538625   11.07517036238892
H           6.27931635996789   -9.81662248918900   10.02090853274315
H           7.01562739041518   -9.75841402239408   12.25668371024879
H           6.85459104053430   -9.99428383843341   14.72239054245029
H           5.22601361541337  -10.70078147882563   16.58021595987225
H           3.37020724634598  -11.41793254127199   17.85041229692227
H           1.11934357654421  -12.37390752786881   18.65366729825712
H          -1.15914926501519  -13.12972368090412   17.76478062868075
H          -3.52595297813974  -13.25713158049110   12.61730394397328
H          -5.90257059883383  -14.70499093852859   14.56257107581690
