82
 SCF done       -141.017590728435          0.000390829067
C          -1.29171569256063   -0.61283677869908   -3.86576117853949
S          -2.63477021504679   -1.61780547486403   -3.55803917754235
C          -1.63594057714272   -2.97199051753873   -3.12807925515316
C          -0.28527614053507   -2.62367927958821   -3.23785845308932
C          -0.09210099633964   -1.26211249660151   -3.66634317737293
C           1.23007853049148   -0.73961902953594   -3.79599342466460
C           1.52686560293104    0.63039596622390   -4.28309514743676
O           2.44624722312504    1.28812221960298   -3.87982108843371
O           0.72424727359874    1.10171583887072   -5.26263510369697
C           2.29012618121361   -1.54449432832600   -3.46315479323748
C           2.10971270446247   -2.88583740343499   -3.10506613681734
C           0.85592073710800   -3.44252188195316   -3.02603751717230
O           0.67546488061326   -4.76008959610127   -2.77555772572436
C          -2.24772815252725   -4.15151454764878   -2.61847973342382
S          -1.54943043685237   -5.04602997872786   -1.31839210436950
C          -2.88912407898397   -6.13731275933252   -1.19452828893123
C          -3.87874968303887   -5.79771390478525   -2.12859556620662
C          -3.50912144241309   -4.67560369221870   -2.94096940574684
C          -4.36886707167461   -4.24241733046508   -3.96991412240431
C          -5.57354034541063   -4.85923780683754   -4.13620920715297
F          -6.40027017834635   -4.46145617941920   -5.11858208163992
C          -5.97641507249177   -5.90747689204966   -3.28102460960881
F          -7.19479476568387   -6.45473201775220   -3.44418004553719
C          -5.15246294990959   -6.37623921906289   -2.30043437820738
C          -2.78883132816308   -7.17355886838917   -0.22721786198301
C          -3.52014915717694   -8.30839942160586   -0.14111888429552
C          -3.32753421030125   -9.25554928123930    0.91226800490736
C          -4.00291362770743  -10.40213956559972    1.11052703834856
C          -5.09975629466458  -10.93451644044934    0.24876298904533
C          -3.70036545337732  -11.22194050568308    2.33959040626737
N          -4.22300384873813  -10.54464711926467    3.51030513097889
C          -4.18170934125434  -11.04117020063627    4.76623745672285
C          -3.82072754879540  -12.30680701587196    5.11101987626641
C          -3.80409523771373  -12.83502815488146    6.42076076750177
C          -4.00649806493540  -12.22093545821370    7.63001470702031
C          -3.96518511457755  -12.87516100735788    8.88784172695494
C          -4.15807317235251  -12.06487872090007    9.96460542371734
C          -4.36224356508875  -10.70780506789559    9.63297156956401
S          -4.31512136571691  -10.50503447350819    7.89480073620202
C          -4.56555241665300   -9.63819173066999   10.48162554497655
C          -4.64122458380150   -9.64578294454754   11.88999894175718
C          -4.83680951546824   -8.41473476542712   12.44182583404071
C          -4.92580015578743   -7.35923855972988   11.50426941602732
S          -4.75760669775747   -8.00237264377535    9.87704616664899
C          -5.10668863119326   -6.02317738057538   11.77044494166578
C          -5.17707384929319   -5.02147874382062   10.79280124219328
C          -5.34590914995756   -3.69575896937043   11.07648580751578
C          -5.42266141436061   -2.63237596769159   10.13986278670232
C          -5.35979454788043   -2.74298071303401    8.78925119543547
C          -5.43830960095385   -1.65724854788557    7.85116752877639
C          -5.57550075317001   -0.35855732926738    8.13332312908082
H          -1.47045754234539    0.41220617867614   -4.12323981168696
H           0.09512121984617    0.43576022083361   -5.56941074614332
H           3.28743291047585   -1.13789459323148   -3.52666318378790
H           2.97643797474459   -3.50326380510373   -2.91436987993807
H           1.52862891505047   -5.18902480958673   -2.62990969178307
H          -4.09161727339839   -3.44053044958498   -4.63356950950566
H          -5.50526457555821   -7.16182762207586   -1.65593094320357
H          -1.99652129635299   -7.02681672680566    0.49848958825777
H          -4.26242125978512   -8.53194530565867   -0.88820522159812
H          -2.55470787475898   -8.99608603719357    1.62755819206051
H          -5.33478042257233  -10.27726621134459   -0.58095217627466
H          -5.99983899319096  -11.07899326284196    0.84650767267283
H          -4.81425522263550  -11.90679308519083   -0.15380086937907
H          -2.61513773755950  -11.36801137038450    2.44563583961445
H          -4.17013674240855  -12.20701031869632    2.26419614412526
H          -4.39398313810237   -9.55807729052741    3.39987081330278
H          -4.51636396882366  -10.34684806238588    5.52092243138805
H          -3.52764488746854  -12.99503200093718    4.33121761038260
H          -3.57855686119662  -13.89270859921363    6.48973635983186
H          -3.78977492676490  -13.93512790827541    8.95451684335314
H          -4.15095537660686  -12.40331811615955   10.98525910735481
H          -4.54995328131617  -10.55512498330781   12.45729734360498
H          -4.91817141377471   -8.22910477178343   13.49870422353372
H          -5.19589949648838   -5.73577773059146   12.81047304568478
H          -5.08604995031309   -5.34550486505215    9.76463115346263
H          -5.42807481178967   -3.41808801794496   12.12059081882447
H          -5.54507102807504   -1.64618335963326   10.56764516601699
H          -5.24198407335712   -3.72439239770567    8.35110310913363
H          -5.37669642220612   -1.94963686531602    6.80949744281206
H          -5.64242408746233    0.01193405334182    9.14136970229871
H          -5.62481504347784    0.38095480122638    7.35302952563399
