98
 SCF done       -173.160640552383          0.000857881215
C          -9.87517904682361  -25.29876763756250    3.12114890777829
S         -10.11703163246907  -24.07784487149516    1.95102089196332
C          -9.80039973313336  -22.81540478175629    3.08862899906265
C          -9.50723186654190  -23.34733960842625    4.33897362848700
C          -9.56092887623592  -24.78659845250254    4.36106608150497
C          -9.25888865662919  -25.48020348753740    5.57336550672388
C          -9.34125365499817  -26.95447985974496    5.71728344028408
O          -8.61110769268698  -27.58956744651959    6.42755572973423
O         -10.33352014391141  -27.56538792006344    5.03307711421594
C          -8.87815946997364  -24.74992942575027    6.66964019627818
C          -8.86872040629800  -23.34726811960239    6.66220004844972
C          -9.20427610321028  -22.63987196468932    5.53612041405096
O          -9.27348245263725  -21.28948790338136    5.51918536147636
C          -9.75566244876503  -21.45394712561126    2.63724061637362
S          -8.35656122362771  -20.47455071290876    2.95137745282275
C          -8.94989744379052  -19.18367957876803    1.95212805401974
C         -10.17263744260114  -19.52372367926197    1.40593874574901
C         -10.63532980677130  -20.81200120070838    1.78881532359549
C         -11.91860737996804  -21.33071888004825    1.33611297353262
C         -12.74201076634087  -22.06979804886670    2.06662823114182
O         -10.88042423225719  -18.69661241562671    0.56970993951474
C         -12.00327536415517  -18.07701140073729    1.16780609478902
C          -8.15940544841560  -17.99824933606284    1.80911307726790
C          -8.40980388427429  -17.01539251407211    0.92453214090319
C          -7.63151068577629  -15.81828995052796    0.72643526275892
C          -6.91462980980442  -15.12741804742928    1.62080459257293
C          -6.83541750044262  -15.43287156990387    3.08397836925253
C          -6.11455952030591  -13.89937775418994    1.22636448278708
N          -6.04799467894197  -13.63680318752193   -0.18787510070485
C          -5.43268757649428  -14.44616835673804   -1.07344787509593
C          -4.55804206719321  -15.44745762779028   -0.76759199536411
C          -3.96500721451507  -16.32454936123612   -1.69418915483849
C          -4.31044283428665  -16.57841234754560   -3.00005475323925
C          -3.66549265556834  -17.50829742480190   -3.85035741160131
C          -4.24188113449474  -17.65574603098096   -5.07725211267722
C          -5.38235398558901  -16.84899945089523   -5.27120022754589
S          -5.68607177737889  -15.88319960186368   -3.85293967399472
C          -6.20541001234022  -16.77310018626761   -6.38390630429537
C          -6.10376742934487  -17.47898661586908   -7.59563377630600
C          -7.09801706480897  -17.18521244068314   -8.48765487803323
C          -8.02912579809042  -16.23563812865645   -8.02210125908935
S          -7.60005201042641  -15.71216363859232   -6.41458217044267
C          -9.13104663600781  -15.74943805548485   -8.70871724974141
C         -10.01526801643662  -14.82829718213289   -8.17415171766671
C         -11.13219714046142  -14.26143194282965   -8.76353252266740
C         -12.16881485500958  -13.66617737045545   -7.90032494852939
O         -12.08859291315430  -13.43343018936149   -6.70964635418401
C         -13.34086977512651  -13.45552716441334   -8.77689195197901
C         -14.58809329979713  -13.00843174762732   -8.45642678492325
C         -15.57290671062550  -12.92585538448320   -9.46810202986493
C         -15.23921688697022  -13.31674634733291  -10.79614136064385
C         -16.22582666833671  -13.24224646269073  -11.79795486927672
C         -17.47659825372065  -12.79405180214084  -11.47661696624643
C         -17.82380276289281  -12.40223259576765  -10.17795448909691
C         -16.87758786171233  -12.47081482575205   -9.19270155499562
F         -18.42262091189553  -12.72151777222428  -12.43531752990100
C         -13.93177709182332  -13.76737316704846  -11.10023066177754
C         -12.99492860970764  -13.82941039172463  -10.10654326654156
C         -11.58126984780643  -14.21670801354258  -10.12288917549749
C         -10.81514165065738  -14.31291003187796  -11.26526924735841
C          -9.40967222057995  -14.37264049615717  -11.28391486302437
N          -8.26389417293340  -14.37020050036016  -11.37441944334459
C         -11.33783095688125  -14.24717439401782  -12.56943521695074
N         -11.70431154646219  -14.22699389654156  -13.65894520306550
H          -9.92245728050648  -26.32241582734574    2.80618264022348
H         -10.90800372687462  -26.93135137948044    4.58433338397963
H          -8.61782569798235  -25.27774547772054    7.57404495324936
H          -8.61211567301271  -22.81671290574848    7.56854404675945
H          -9.02091417002791  -20.93610246806617    6.38188396192616
H         -12.19634375246027  -21.02315018253067    0.33554755895005
H         -12.50444950428485  -22.35434951609219    3.07859922169256
H         -13.68688841466523  -22.40992818439830    1.68019062284435
H         -12.69360279576406  -18.81507921977309    1.58791762389662
H         -12.49886513445386  -17.52104098634988    0.37433322579229
H         -11.69072729677563  -17.38703061961153    1.95967003871493
H          -7.28260207570142  -17.96292718737293    2.43873301037141
H          -9.23697891349008  -17.14121886224818    0.24034435443051
H          -7.67617416228954  -15.44719461817787   -0.29038907875534
H          -5.97222055171605  -16.06192705968050    3.30280899846979
H          -7.72996911135100  -15.95223517700921    3.41742841608121
H          -6.72600227951296  -14.51246995894509    3.65586265644600
H          -5.09518798554598  -14.01527875535046    1.61374743835528
H          -6.54463828482914  -13.01721356819440    1.71142239075487
H          -6.73938745692439  -13.00393895254118   -0.55680737597574
H          -5.63219818350666  -14.20550733302201   -2.10713603820338
H          -4.27752336423114  -15.59864182312727    0.26415336412252
H          -3.15392873077412  -16.93392764479670   -1.31419381683614
H          -2.79363170184895  -18.04839990834219   -3.52456955891536
H          -3.88603504831951  -18.32801687893954   -5.83668557594685
H          -5.31242090875188  -18.18249125488643   -7.78319464744209
H          -7.18424599887806  -17.61852900965442   -9.46795483168904
H          -9.29231693762167  -16.14964742510623   -9.69848386137185
H          -9.88553703430061  -14.56906148845379   -7.12669364609253
H         -14.82472187673735  -12.72126994447741   -7.44267487941598
H         -15.99271721911588  -13.53293235836496  -12.81045268547936
H         -18.82654662253878  -12.05597110313834   -9.98327630328603
H         -17.12098482813486  -12.17451808035595   -8.18316208121172
H         -13.71098955547072  -14.05913701352094  -12.11456110289411
