123
 SCF done       -192.411925708484          0.000408064131
C          -1.91672564378549  -11.20584750234052  -12.79464350204755
S          -2.92240989074067  -12.17178633869260  -11.79562047586143
C          -2.10746101099921  -11.66111228003003  -10.32557835137979
C          -1.09305421972535  -10.77010169426258  -10.64926870004248
C          -1.00311235672460  -10.52564314860031  -12.05126602892089
C           0.03468162258644   -9.59526325033498  -12.47823403514673
O           0.31351306861482   -9.22601224359083  -13.58039065627739
S           0.89591588073832   -9.04424396674043  -10.99367542296625
C          -0.11910247441299  -10.04297853826235   -9.86146618130923
O           0.07981224096111  -10.01990300838590   -8.67909376496825
C          -2.60047178176243  -12.20827108825449   -9.10948896510746
C          -2.11729293959262  -11.94749298037611   -7.87422519471216
C          -2.61700758262384  -12.47123953232983   -6.63094343241591
C          -2.00666445990961  -12.02585876969233   -5.44441293464380
C          -2.45676205105934  -12.48151976576055   -4.23164935385755
C          -3.52680701909480  -13.39083837983434   -4.16435015233799
C          -4.13625891972807  -13.84323113623914   -5.32775704168367
C          -3.68042913851125  -13.38299575108147   -6.54490624951926
C          -3.77444392827408  -13.70621500606671   -2.77555004872961
C          -2.85649335507417  -12.99448510862427   -1.98191838087517
C          -1.99129838166318  -12.10125732331284   -2.84202066461033
C          -2.34064208372186  -10.60553875603872   -2.65059319576590
C          -2.14005625693169  -10.04728635544538   -1.24795355649349
C          -0.49275360464864  -12.36391499782870   -2.63660834156956
C          -0.11413212102114  -13.81232740443241   -2.92457569864810
C          -2.82596445755521  -13.18025633916785   -0.62071357309573
C          -3.74985674287982  -14.04237947841152   -0.01393825834911
C          -4.68520696514018  -14.70725011910528   -0.81612910246391
C          -4.69594728572792  -14.56108095100468   -2.18823886104608
C          -3.77940813977571  -14.26164779817297    1.41946163622678
C          -2.80961369451354  -13.94247102762344    2.28636972533818
C          -2.92953094968293  -14.14582212422155    3.72757792957601
C          -1.93538386534180  -14.67696441519269    4.56566073624877
N          -0.68187775120254  -15.19036029024011    4.29063276712481
C           0.01262649707576  -15.10916890234045    3.02980057539391
C          -0.43534921705522  -16.18720634448174    2.04442616766326
C          -0.12946062829268  -15.67297092877239    5.45835920179362
C          -1.01636890530738  -15.41184150610767    6.52738044743248
C          -2.18414737999758  -14.81280544083673    5.95337229313620
C          -3.38501804252476  -14.41591705658603    6.52323723749657
C          -4.36078546300258  -13.89956874860492    5.69659862198854
C          -4.13195109075319  -13.78081649158650    4.33341860385326
C          -0.67659358375968  -15.70767485314390    7.83968172333066
C           0.56704281138152  -16.25680512746289    8.08294331711875
C           1.42730926694455  -16.54750266964844    7.03569506990137
C           1.10593355389432  -16.30272851597275    5.69666733707495
C           1.99980524451844  -16.78300628116602    4.66309051817445
C           3.35086641164700  -16.80289603534224    4.76409146749008
C           4.20036906137489  -17.36479600689091    3.78778564467552
C           5.56773986108369  -17.35291042025512    3.85578727361814
C           6.47897018543651  -17.92155746545813    2.93058487505612
C           7.78981906134559  -17.75620220420473    3.25847792368479
C           7.99730412360110  -17.03945986542686    4.45769890254805
S           6.45972640026446  -16.59159072479017    5.16822184047178
C           9.19704825920664  -16.68902762200288    5.04416966285947
C          10.50500723880690  -16.98564788617608    4.59955237966208
C          11.48504175804331  -16.48232897238502    5.39822630807948
C          11.01826129479648  -15.75144655885911    6.52113634922794
S           9.26003640734029  -15.74836454380346    6.51844498789710
C          11.80931095192896  -15.13460037529090    7.45375460506332
C          11.41531188342962  -14.37132736349078    8.57485201619750
C          10.13881189041255  -14.04936409671605    9.03953878367747
C          10.26862172318254  -13.23951643779884   10.19698187843782
C           9.32694172824121  -12.65940424314864   11.01598546691137
C           9.78635056202552  -11.89145703527589   12.09939813569391
C           9.11234803747445  -11.18729534163095   13.08500945972503
C          10.06359908755861  -10.56725586177433   13.95610239911031
C          11.33012255109124  -10.89140604203940   13.50673087016749
C          11.20697454326826  -11.71880415024060   12.34639739097129
C          12.14704727867209  -12.29601125320604   11.53602681361933
C          11.68873452396946  -13.06608203177160   10.44522839098520
C          12.36696016229385  -13.75558642614202    9.46017451199919
C           9.69009180247786   -9.75486461986789   15.08971906801976
C          10.53462726011588   -9.14921875717685   15.92017098665617
H          -2.04980661790187  -11.18976969990587  -13.85788860638352
H          -3.43835190195105  -12.88036592602895   -9.23970412834903
H          -1.27999948758362  -11.27112454123774   -7.78179559365035
H          -1.18653498565812  -11.32567068989080   -5.50879500358619
H          -4.95607570652176  -14.54452266749890   -5.28100700224442
H          -4.15430229690192  -13.73631736456938   -7.44757172645150
H          -3.38775078279931  -10.46823422435159   -2.93382870649615
H          -1.73196957879643  -10.03213939388510   -3.35319304286676
H          -2.80433469549814  -10.53188633456827   -0.53754514589634
H          -2.36825069081598   -8.98355618616933   -1.25023799133668
H          -1.11273852989322  -10.16849068392734   -0.91456249077329
H          -0.22505845707037  -12.12458727342321   -1.60655144300140
H           0.07482356292701  -11.70191838149362   -3.29354680799861
H          -0.66466026194918  -14.48893217646488   -2.27392702495603
H           0.95021505904047  -13.96232377411867   -2.75798706104247
H          -0.34038509394864  -14.07090128356822   -3.95659995627094
H          -2.09946696707518  -12.66235958178888   -0.01495564826933
H          -5.40134819002858  -15.36504355996672   -0.34406554590232
H          -5.40854101342284  -15.10291511215683   -2.79222750995516
H          -4.66226217070401  -14.76720023633647    1.79108892224015
H          -1.90246984688224  -13.48390215322343    1.92348539786882
H           1.08194477139590  -15.20362212336254    3.23466155552236
H          -0.14451077776884  -14.11799244758008    2.59942600935154
H          -0.29419724677222  -17.17752115291385    2.47163418875088
H           0.14236128433935  -16.11501158963534    1.12633461489450
H          -1.48901612891353  -16.06819449216189    1.80334523974665
H          -3.54675285860028  -14.52124904818374    7.58483629052487
H          -5.30930114989931  -13.58383784727694    6.10438704857592
H          -4.90462281173241  -13.35823721549263    3.70801415262802
H          -1.36634406818871  -15.50369786554311    8.64397566401908
H           0.86906294123405  -16.48653698686955    9.09377433282896
H           2.36782165158841  -17.03145430185047    7.25149956753771
H           1.54876354441799  -17.21729773120737    3.78077853906862
H           3.83168280167049  -16.34625618813969    5.61964916753083
H           3.74782292893188  -17.84601428640663    2.92995920430181
H           6.13149454409170  -18.43750029404161    2.05249420181874
H           8.61145551107758  -18.12427377570520    2.67006654584741
H          10.68536367540900  -17.55958966213198    3.70819331379715
H          12.53852379525311  -16.60696788623668    5.21661049600784
H          12.87774282722467  -15.23777363233854    7.30402306114382
H           9.20330963866003  -14.35054826823576    8.60969251719436
H           8.26834599743640  -12.78358219590996   10.83683321612363
H           8.04456503425663  -11.10893912242735   13.19106377316806
H          12.26376859796142  -10.58485267658435   13.93982902102080
H          13.20683721120474  -12.17247001927412   11.71211893641290
H          13.43495867063130  -13.83014499885466    9.35258841753801
H           8.62307825060400   -9.65020403211730   15.24555821143109
H          11.60219406463463   -9.22283770026760   15.80328748596779
H          10.18496510004054   -8.55544913706272   16.74690916600133
