123
 SCF done       -216.177130106801          0.000778370942
N           3.64949489387423    0.67934847991431   -2.49643189349770
C           3.36709077455637    0.86955009037497   -1.08310800659499
C           4.11679170679035    2.07922442950516   -0.54108189362969
C           4.26874786133291    2.04324771622422    0.98064701642117
N           5.06581883305204    3.19305533917937    1.36381540976723
S           6.69847822599800    2.67242924537949    1.26137885596860
N           6.35672390489824    1.10444299859194    1.88822467936747
C           5.01800914301275    0.73919921120355    1.45245937013903
C           5.11503064639072   -0.28838091616498    0.32270362729809
C           3.74510890448854   -0.44267125532637   -0.33688340217177
N           3.75360722668054   -1.49384168507134   -1.33412695419703
S           3.17544804141912   -0.88877870089393   -2.87033725052625
C           3.69368455511318   -2.82010723072958   -1.05460887609103
C           3.72348464429832   -3.38385103994894    0.17096627636202
C           3.73264070253424   -4.79640732864653    0.44524965618836
C           3.70717886045499   -5.77891737115037   -0.55950116772696
C           3.71051791535996   -7.10568101543273   -0.21453574994285
C           3.75136876949898   -7.50180843781932    1.13601532476368
C           3.78124583038512   -6.54218151322969    2.14156228748193
C           3.77000659600363   -5.21197371404904    1.78792765936477
C           3.72504439347755   -8.93869686376020    1.19545473000051
C           3.65524894132399   -9.44604289971903   -0.11981007588865
C           3.71969418710535   -8.31697206381897   -1.12366981208046
C           5.07182679651791   -8.30435906285079   -1.87677598297570
C           5.38259991969469   -9.54183747102540   -2.70832798704292
C           2.53049457751894   -8.32767329924250   -2.09462173525803
C           1.19230716869844   -8.21439710902566   -1.37341249578440
C           3.52515544448481  -10.79165420325541   -0.33958421861962
C           3.52567707865711  -11.68332145967959    0.75244169535909
C           3.64751855547814  -11.15940599613713    2.05390931827254
C           3.72768739241610   -9.80571999678229    2.28417487453252
C           3.42421480683442  -13.10138553219235    0.59536830713404
C           3.16120385171001  -13.75548942019838   -0.56785478681103
C           3.08822543052939  -15.16001330291922   -0.73054621074439
C           2.73216779738312  -15.69002609244169   -2.00233603121303
C           2.62142057876455  -17.09998302332973   -2.24503296440083
N           2.35581479436138  -17.54478727999948   -3.47832488110312
C           2.16696634514684  -16.67765749306450   -4.45223673166371
C           2.20995596553791  -15.27623664060921   -4.19557852718586
N           2.49605121408810  -14.82179370293327   -2.99729589551806
C           1.96854505379303  -14.34801849631852   -5.23863921715911
N           1.78151028980661  -13.61346966191736   -6.09773884798286
C           1.96236565027275  -17.16055561800549   -5.76720806040376
N           1.82506141164071  -17.54509820558674   -6.83848454062096
C           2.86478720631969  -18.07511254729398   -1.22374726343258
C           3.27579548099748  -17.54574620341167    0.02956229219750
C           3.35936478797667  -16.12225779310653    0.27446324307497
N           3.71574529463105  -15.86213546763887    1.53093680022770
S           3.91745382136486  -17.24426023866118    2.32888367443762
N           3.56731031413008  -18.24819815100724    1.11826315917915
C           2.63239929309590  -19.41594163413180   -1.54826233368791
C           3.05529688297650  -20.60364702736539   -0.98033647297345
C           3.99823482613274  -20.91638621508681    0.01549431237457
C           4.30409608903764  -22.25087966368929    0.09600367723631
C           3.59559419079368  -23.05407344008112   -0.81192038669205
S           2.49657651866110  -22.08419097833904   -1.74878869625348
C           3.74525500599928  -24.40692588850399   -1.12063220384635
C           4.73726384021297  -25.32366304171069   -0.74491207524900
C           4.71102265996227  -26.48631097339298   -1.47682759760094
C           3.70364481525129  -26.53312299825792   -2.45716396134489
S           2.71190182037304  -25.09676092067708   -2.34007718638808
C           3.42954321651099  -27.56325923554535   -3.35054876482954
C           2.45491312339745  -27.51483347208057   -4.34459199334100
C           1.97638007366802  -26.33515247089074   -4.89978635958379
C           0.65836349419127  -26.04524961996082   -5.38483158358031
C          -0.35100460772276  -26.94284323966793   -5.65534104092875
C          -1.63061460904299  -26.57014596576272   -6.10534389222821
N          -2.68944925209325  -26.32169439853786   -6.47598870343863
C          -0.20985992275677  -28.33908083821692   -5.55955760584699
N          -0.14869463118236  -29.48470841841285   -5.49132496710240
C           0.54007823037442  -24.58706547609928   -5.44835248974858
C           1.82259714335394  -24.01654036327155   -5.26161948515835
C           2.79890267497041  -25.10614572517283   -5.05509057093649
O           4.00814442424575  -25.03390382919387   -5.09076009582369
C           2.02686048897652  -22.66367056403549   -5.15499838711044
C           0.89987629318401  -21.83358282453717   -5.17452590934963
C          -0.37654939878900  -22.41174777992743   -5.36270032964152
C          -0.57655091172965  -23.77890035759686   -5.52536083898639
S          -1.63578047404355  -21.21770567505641   -5.27403240549478
C          -0.44710113602108  -19.98301304560624   -4.95512313432003
C           0.82971241614438  -20.43059992342070   -4.94801742111149
Br         -1.02287745867523  -18.23435008096238   -4.59919124418056
H           4.62876278636295    0.84488584126363   -2.71623161053411
H           2.28409181613651    1.01906542613425   -1.00198945275990
H           3.59863791389310    2.99556964616199   -0.82186969123506
H           5.11847859285238    2.12867243060865   -0.97271937619967
H           3.28375791384433    2.10919323544911    1.45180376360219
H           4.84551026469183    3.53662352822367    2.29389004345581
H           6.45807717116882    1.09108816834161    2.89754968134379
H           4.47424220676371    0.29130663654054    2.29209650542914
H           5.45860018228944   -1.23927999801693    0.72833672430139
H           5.85690239982799    0.03983645490346   -0.40539193645321
H           2.99221402513226   -0.65985826573547    0.43375879067986
H           3.64603638927863   -3.42317803996512   -1.94939810889673
H           3.74715142850644   -2.74809973075762    1.04478063522572
H           3.67834501035433   -5.49027635678106   -1.59856174229442
H           3.81137094572709   -6.83371707076181    3.18095020786805
H           3.79056405245958   -4.45746637880774    2.56202883237615
H           5.86581366134630   -8.17138661909414   -1.13662143413841
H           5.07899108772868   -7.42659560540485   -2.52698379833071
H           5.48654639346897  -10.41927142234402   -2.07583940299436
H           6.32341523846220   -9.39296713205557   -3.23424581929671
H           4.61027663481458   -9.72826421341100   -3.44958544088763
H           2.54559071346005   -9.25324164839388   -2.67086516768940
H           2.63848654176183   -7.49582381518017   -2.79382912720928
H           1.06091859125981   -9.04104716791429   -0.67847145682738
H           0.37665156465498   -8.23690480738313   -2.09226664368959
H           1.13357281707291   -7.28347168861152   -0.81342437994522
H           3.42283572526211  -11.17593288016257   -1.34131728676283
H           3.65592109467358  -11.84752069887421    2.88708789939872
H           3.79078958544828   -9.42080845004704    3.29114347254991
H           3.56381798756906  -13.69292859350778    1.48971308983243
H           2.96529141630840  -13.20229357165799   -1.47529105356698
H           2.06378986548891  -19.53574856190349   -2.46278820831217
H           4.44453340942113  -20.15117387626819    0.62224814721619
H           5.02816704874308  -22.66333204096685    0.77594970447538
H           5.46417847542656  -25.10616858285024    0.01737494174630
H           5.42014614251948  -27.28679699039196   -1.35975946600037
H           3.94131296668201  -28.50089234075463   -3.17803491891610
H           2.02425012757489  -28.45737746433864   -4.65935940960232
H           3.01572584581963  -22.25860275261678   -5.00989932440441
H          -1.57101750373162  -24.17122190009342   -5.65999494593794
H           1.68574376373167  -19.80106862394177   -4.78508988677534
