91
 SCF done       -164.563917753422          0.000818209751
C         -17.97048222255451   12.45430036226067   -1.04914550170652
S         -16.42194756976330   12.97785142966270   -1.58258481561645
C         -15.61783821892374   12.01343319886554   -0.37780368334510
C         -16.55646697894080   11.32710056534417    0.38829054916950
C         -17.89304601839597   11.58996218867562   -0.00800033629667
C         -16.26678552505205   10.45969874900143    1.45018373963227
N         -16.07844974648121    9.74138202702390    2.32705375481200
C         -14.20053978366531   12.02983939475047   -0.31280667837375
C         -13.45265217887489   11.31942828942689    0.56904668480329
C         -12.04381728941178   11.33779162872923    0.63377905415462
S         -11.06713140236539   12.28413800398716   -0.43818262730809
C          -9.57719582777152   11.72748094401142    0.25088718040431
C          -9.83080610491806   10.86104034152191    1.32537689835758
C         -11.22863762559507   10.62983411055128    1.53175598143024
C         -11.66147018811187    9.77648128885300    2.56578592522986
C         -10.72998073082638    9.20212546053631    3.38004458600655
F         -11.11322504723769    8.38627324380888    4.37306275155252
C          -9.35234549203995    9.47299606482808    3.21437701389254
F          -8.47297756353808    8.92514575439247    4.07093381627600
C          -8.90149871452069   10.28500254931521    2.21592937499016
C          -8.36438442544847   12.18490470974966   -0.33209872829773
C          -7.14992370260538   11.59551935768383   -0.24565163256162
C          -5.97767058917612   12.15707559108334   -0.84135362211417
C          -4.75336794883393   11.60148662149791   -0.82574911341547
C          -4.44437422950119   10.26206943047380   -0.23066579406146
C          -3.55597845029807   12.30943489535923   -1.40754879840481
N          -3.73764026724981   13.72889228538124   -1.54753513099311
C          -3.26284506719157   14.45690148534097   -2.56707766219733
C          -3.31542489059423   15.82120280610483   -2.61637941900460
C          -2.79437336145962   16.64255527881643   -3.62930484741810
C          -2.11409508320011   16.31789569981699   -4.78068972205367
C          -1.55623804602571   17.25928287910327   -5.67770310144323
C          -0.87668692945000   16.71546591735098   -6.72793609065320
C          -0.87323140366691   15.30609166421375   -6.73442627100072
S          -1.75465842981085   14.69523106332248   -5.36269274435234
C          -0.26781493871051   14.45277446296285   -7.64527368327532
C           0.52840214504331   14.79614486246424   -8.75123472757458
C           1.02959431820274   13.71785888205610   -9.42788606473860
C           0.65505961688009   12.47153195646136   -8.88622184977310
S          -0.40396919900254   12.71345672064858   -7.51892174766071
C           0.95145256230365   11.18629054087638   -9.31840137181094
C           1.88433455319155   10.79281437714554  -10.26870471748885
C           2.98703953492720   11.43355834719784  -10.81559209174806
C           3.49090790143144   10.95472118565747  -12.11930633805488
O           3.13027737141052    9.96597357282686  -12.72636107025205
C           4.49049342684996   11.95515022461404  -12.55226225235733
C           5.18383380043237   12.03319806416829  -13.72306685557738
C           6.08345530037755   13.10683423884182  -13.92160931075110
C           6.24274420590145   14.07992699794424  -12.89409256668682
C           7.13777748590379   15.14764384042952  -13.09768395999775
C           7.83338759802256   15.22614941261784  -14.27186374533594
C           7.69092867566134   14.28031143159631  -15.29436320609454
C           6.82485056674359   13.23714300992342  -15.11250057661356
F           8.69215174111179   16.24800078741748  -14.46698860047412
C           5.51320189091938   13.96752932639686  -11.68578115663100
C           4.65253037040939   12.91875166827562  -11.51725377177772
C           3.80116159860046   12.53049537150887  -10.39006850823994
C           3.93274870345132   13.02966527288561   -9.10933226173994
C           3.33928169068037   12.45222324615632   -7.97543952113920
N           2.92476836627880   11.99720537260357   -7.00459101563293
C           4.73709525684940   14.12860236054423   -8.76573330010159
N           5.33966997168374   15.04611739112718   -8.42282158088099
H         -18.84954417062630   12.81994124866906   -1.54107293629346
H         -18.74443863565687   11.14433418118679    0.47462464523246
H         -13.70318996803573   12.66606828718255   -1.03416832658820
H         -13.94755184771235   10.68312643618753    1.28651511929557
H         -12.70783333460320    9.57731132122839    2.73011965114200
H          -7.84889504634912   10.49825495267143    2.14812109979441
H          -8.46114311213454   13.07318827658007   -0.94546512319610
H          -7.04216405319055   10.66061147800208    0.27821056046519
H          -6.11169450782054   13.11367926048093   -1.33062185462908
H          -4.29120214575195   10.34881158861631    0.84582959077409
H          -3.53446704165990    9.85525148282461   -0.66521084238376
H          -5.25143551197680    9.55539030503758   -0.40120588222801
H          -3.32663314481045   11.89211381631943   -2.39439751507578
H          -2.68925597037905   12.10594643368698   -0.76002036846588
H          -4.09720843620005   14.21698413630127   -0.73899379718073
H          -2.82991568717122   13.88682759467899   -3.37442944005889
H          -3.77713421955043   16.33407679668066   -1.78214538896823
H          -2.91458806995383   17.70736633587909   -3.46969272615113
H          -1.66293514400844   18.31725914846553   -5.51249161442610
H          -0.38355865341569   17.28888012770965   -7.49145099023895
H           0.72395037137307   15.81839005087272   -9.02248204744186
H           1.61452498881581   13.79621181705575  -10.32597290772267
H           0.34214039797360   10.39869164738981   -8.89377801023878
H           1.71330034168808    9.81309963615578  -10.70762892860496
H           5.05210155529062   11.28524999632459  -14.49066011755569
H           7.27521818373831   15.89328870192159  -12.33002960036084
H           8.26547844875321   14.39379550501875  -16.20001795754196
H           6.69761344043949   12.49457606486247  -15.88613739281572
H           5.65281351271459   14.72097516714200  -10.92686203605074
