75
 SCF done       -130.032354540711          0.000694253310
C          -0.03577709432758    0.78521906406973   -3.60735910510257
C           0.97784061587635    1.70150197474861   -3.49799918698505
C           0.98838218424868    2.70111307065537   -2.51481945494009
C          -0.01899443768485    2.82792002781911   -1.57097332437327
C          -1.09902028885267    1.91002546010423   -1.68887591002833
C          -1.10042613937576    0.88675907567878   -2.69945519792266
N          -2.19821644790712    0.13006489922121   -2.63873941313119
S          -3.12504280976366    0.65570434172619   -1.43566488981338
N          -2.18809533348940    1.86404607095059   -0.92804317406229
C          -0.05800846054717    3.83251930919533   -0.54892434410026
S          -1.59268889906935    4.32167943398892    0.07725393651113
C          -0.89431535397663    5.53622304158308    1.09855547797303
C           0.49799899997439    5.55983363447898    0.95874882309682
C           0.97832976805093    4.56369595401748    0.04882196010055
C           2.36788780428026    4.39878010681892   -0.10205027418316
C           3.25467881581599    5.25249134043287    0.51650166814923
C           4.68240425329450    5.02707185234158    0.34417307599125
C           5.67109301064822    5.69616484437113    0.92703081669902
C           2.74825379828360    6.33191333770471    1.28758067350321
C           1.41421379645050    6.47752337468122    1.51645142962025
C          -1.73674842691150    6.33777533826664    1.91052501480823
S          -3.29787665099103    6.80740361184955    1.31661316967109
C          -3.68763615309666    7.68952400815143    2.76063520434229
C          -2.62507319273629    7.63714587402338    3.66830060198475
C          -1.53449956952627    6.83503389021539    3.20556236094548
C          -0.45775348537865    6.57411841417460    4.07235693088181
C          -0.38487446922306    7.18202478679592    5.30586996588039
C           0.74119491960435    6.87412353553799    6.17481150882917
C           0.94408125247280    7.32665513755479    7.40736838319103
C          -1.40073170400467    8.10284710017099    5.68052987529734
C          -2.49378288678253    8.31843892725427    4.89899766936774
C          -4.94114486368133    8.34225550444385    2.87619507794084
S          -5.66879012330797    9.06918798014695    1.48360629976387
C          -7.02665100755415    9.66590275900031    2.38076729269466
C          -6.94766013754590    9.26273816570319    3.71315862297517
C          -5.77232984461905    8.49283844389068    3.99463111663287
C          -5.61438546014049    7.89434331388733    5.25681780898615
C          -6.54990201673085    8.08683967148974    6.24809107604861
C          -6.33923616015551    7.45497416275594    7.54184038188381
C          -7.09681966671361    7.58206778688668    8.62570061760777
C          -7.69539196602373    8.87907498182322    5.96572062483239
C          -7.90191357034957    9.43508965853933    4.74174780872700
C          -8.01995735590129   10.43153227777048    1.67326176327237
C          -8.30178027497146   10.16945530561163    0.34242453953333
C          -9.24307021955180   10.89750602639034   -0.39663464748152
C          -9.94183027962860   11.94189246162358    0.14872420845185
C          -9.67252112327293   12.27557860975949    1.48425264773012
C          -8.71460156221480   11.52425650099757    2.25773714935332
N          -8.56948158443436   12.02415181268430    3.48307576542707
S          -9.54570226883033   13.29125392236911    3.65043841540081
N         -10.20145847658712   13.28124363207644    2.18364522200669
H          -0.04317687001574    0.01813389723782   -4.36377884040501
H           1.80031006943814    1.66698139877393   -4.19745829932385
H           1.79242589210280    3.41884484612382   -2.52717313719196
H           2.74569172709667    3.57376202332720   -0.68584955355267
H           4.92906245339614    4.21409722355078   -0.32845174886740
H           5.50443247078390    6.50750764403734    1.61434693364648
H           6.70097504354987    5.44888473706999    0.73476254694448
H           3.43762338389112    7.04682340665671    1.70734871964294
H           1.04470873351706    7.30109656310953    2.10773126392328
H           0.30727116080721    5.87643891494620    3.76648395919926
H           1.46692101872208    6.19708679855838    5.74007294867073
H           0.26377829468578    7.99513413691199    7.90614966854060
H           1.81291554136294    7.03545091501602    7.97216885644490
H          -1.30623635097905    8.63703726427410    6.61226581280252
H          -3.25828369334267    9.01749478116222    5.20098543378869
H          -4.76188378671327    7.25558967584226    5.43354248348350
H          -5.45537374592584    6.82969636229853    7.59291905551276
H          -7.98369270563926    8.19150238211495    8.65394561710834
H          -6.84812596920434    7.07343324711678    9.54141171693548
H          -8.43619317255943    9.01666275878081    6.73713526660748
H          -8.79391638836883   10.00392770999902    4.54194666929368
H          -7.78149663055199    9.35566669441866   -0.14219431143687
H          -9.41599666753784   10.61745489582127   -1.42504367675134
H         -10.66617926165282   12.51027790640616   -0.41072344901029
