# ORCA input file
# SCF done       -197.818587245017          0.000718278249
! CAM-B3LYP def2-SVP def2/J RIJCOSX Grid4 TightSCF
%maxcore 5000
%tddft
    Mode sTDDFT
    Ethresh 5.0
    maxcore 5000
end

%pal
  nprocs 6
  end
* xyz 0 1
   C       -9.02475       -11.98422         1.82008
   C       -8.32087       -11.22072         2.77198
   C       -8.47088       -11.50252         4.12158
   C       -9.31729       -12.52921         4.54481
   C      -10.02314       -13.28314         3.58121
   C       -9.85990       -12.99606         2.22033
   N      -10.85263       -14.27830         4.00249
   C      -11.09586       -14.65095         5.31480
   O      -11.86257       -15.55364         5.56231
   C      -10.34705       -13.85519         6.29716
   C       -9.50873       -12.85468         5.91761
   C      -10.52321       -14.15885         7.66563
   N      -10.64566       -14.37223         8.78480
   C       -7.46357       -10.14504         2.33992
   O       -6.81411        -9.39661         3.27182
   C       -7.14954        -9.65551         1.09412
   C       -7.36502        -9.81696        -0.34786
   O       -8.03210       -10.61212        -0.96171
   N       -6.60142        -8.80605        -0.91362
   C       -5.90872        -7.99646        -0.00767
   O       -5.19830        -7.07465        -0.31092
   C       -6.27172        -8.55372         1.29364
   C       -6.08961        -8.42349         2.65265
   C       -5.34769        -7.47401         3.41291
   C       -5.27231        -7.52299         4.75771
   C       -4.53511        -6.58310         5.56668
   C       -3.38273        -6.01706         5.09547
   S       -2.57370        -5.00089         6.20955
   C       -3.82195        -5.29461         7.38116
   C       -4.82821        -6.15563         6.91803
   C       -5.95454        -6.38773         7.74543
   C       -7.11779        -7.17075         7.19054
   C       -7.03309        -8.66228         7.52775
   C       -6.00120        -5.86763         9.03317
   C       -7.20213        -6.10645         9.91232
   C       -8.12553        -4.88625         9.92369
   C       -4.95505        -5.03957         9.51115
   C       -4.81013        -4.30456        10.75067
   C       -3.71253        -3.48786        10.72765
   S       -2.76866        -3.58657         9.30331
   C       -3.89371        -4.73315         8.64452
   C       -5.62497        -4.34509        11.94191
   C       -5.93069        -3.23929        12.66224
   C       -6.67536        -3.26055        13.86064
   C       -7.10826        -2.13306        14.50548
   C       -7.84409        -2.05608        15.71548
   C       -8.16516        -0.78876        16.09361
   C       -7.71237         0.20712        15.19660
   S       -6.83498        -0.51260        13.87455
   C       -7.92339         1.57396        15.25986
   C       -8.60222         2.31088        16.25205
   C       -8.66861         3.64890        15.99001
   C       -8.05275         4.03175        14.77731
   S       -7.36017         2.63496        13.98704
   C       -8.00107         5.30441        14.23861
   C       -7.40446         5.57617        13.01317
   C       -7.35883         6.81569        12.40455
   C       -6.76844         7.12264        11.12834
   C       -6.11627         6.25674        10.27940
   C       -5.56590         6.63157         9.03844
   N       -5.09303         6.87160         8.01899
   C       -5.89828         4.88396        10.50736
   N       -5.67290         3.76064        10.60400
   C       -6.98183         8.54629        10.87085
   C       -7.68101         9.10505        11.96781
   C       -7.94047         8.04708        12.96857
   O       -8.52023         8.18965        14.02844
   C       -8.03544        10.42977        12.02419
   C       -7.68405        11.24633        10.94313
   C       -6.98663        10.67982         9.85200
   C       -6.62683         9.33808         9.79608
   S       -6.65283        11.86287         8.62267
   C       -7.44538        13.08540         9.58045
   C       -7.93453        12.63424        10.75919
  Br       -7.55202        14.84330         8.93283
   H       -8.90252       -11.76431         0.77083
   H       -7.93074       -10.92480         4.85577
   H      -10.39997       -13.57800         1.48881
   H      -11.35692       -14.81435         3.30447
   H       -8.97115       -12.28813         6.66593
   H       -6.54934        -8.66380        -1.91239
   H       -4.88076        -6.69067         2.83604
   H       -5.76491        -8.34095         5.25861
   H       -2.93184        -6.19555         4.13884
   H       -7.14456        -7.03633         6.10875
   H       -8.05552        -6.76900         7.57422
   H       -6.07866        -9.08176         7.21655
   H       -7.83646        -9.20333         7.03110
   H       -7.12316        -8.82484         8.59925
   H       -6.87414        -6.33050        10.92461
   H       -7.76519        -6.97254         9.57466
   H       -7.60378        -4.00781        10.29401
   H       -8.98594        -5.07100        10.56280
   H       -8.48083        -4.67176         8.91815
   H       -3.37548        -2.85786        11.52777
   H       -5.97771        -5.30421        12.29152
   H       -5.63170        -2.26681        12.29219
   H       -6.93151        -4.21919        14.29253
   H       -8.11129        -2.94181        16.26450
   H       -8.72132        -0.54291        16.98020
   H       -9.02132         1.84369        17.12520
   H       -9.14771         4.37216        16.62553
   H       -8.45994         6.11087        14.79181
   H       -6.95235         4.73771        12.49734
   H       -8.56845        10.82543        12.87456
   H       -6.09607         8.95610         8.94036
   H       -8.45107        13.25212        11.47087
*
