# ORCA input file
# SCF done       -193.498831770837          0.000215307681
! CAM-B3LYP def2-SVP def2/J RIJCOSX Grid4 TightSCF
%maxcore 5000
%tddft
    Mode sTDDFT
    Ethresh 5.0
    maxcore 5000
end

%pal
  nprocs 6
  end
* xyz 0 1
   C       -6.28774         4.27278         0.89443
   C       -5.00135         4.72722         0.96404
   C       -4.38041         5.16300         2.15540
   N       -3.82688         5.52666         3.09196
   C       -4.10904         4.78165        -0.12897
   N       -3.33222         4.83309        -0.97205
   C       -7.21082         4.12943         2.00954
   C       -8.37658         3.45501         1.56185
   C       -9.43379         3.16209         2.39143
   C       -9.34088         3.56492         3.72628
   C       -8.17625         4.24365         4.16615
   C       -7.10565         4.53152         3.32958
   S       -8.27623         4.65208         5.85044
   C       -9.85617         3.91693         5.94089
   C      -10.28919         3.39146         4.76977
  Br      -10.77814         3.91384         7.57148
   C       -8.24634         3.15306         0.13354
   O       -9.01259         2.49763        -0.54349
   C       -6.97217         3.78898        -0.30544
   C       -6.59743         3.94953        -1.58904
   C       -7.42832         3.54178        -2.74263
   S       -7.63354         5.00853        -3.85169
   C       -6.89338         4.16913        -5.29449
   C       -7.11085         2.67591        -5.08191
   C       -6.80373         2.43185        -3.58919
   C       -6.17110         1.76443        -5.90710
   O       -6.09384         0.58446        -5.62734
   N       -5.47826         2.34544        -6.88751
   N       -8.45468         2.28704        -5.52626
   N       -9.53235         2.70059        -4.75421
   C      -10.11702         2.12599        -3.67986
   S      -11.11432         3.18269        -2.72139
   C      -11.48047         1.86635        -1.64572
   N      -12.17354         2.17185        -0.47925
   O      -12.36634         1.27823         0.32845
   O      -12.52335         3.33404        -0.33355
   C      -10.91706         0.68748        -2.03232
   C      -10.13761         0.79006        -3.20806
   C       -9.48996        -0.31470        -3.82880
   C       -9.64303        -1.62886        -3.48830
   C       -9.07180        -2.72313        -4.16556
   C       -8.41896        -2.75048        -5.37868
   C       -7.84708        -3.89668        -5.98625
   C       -7.24979        -3.66490        -7.19198
   C       -7.31875        -2.31825        -7.60232
   S       -8.18525        -1.37444        -6.43517
   C       -6.77122        -1.68096        -8.70835
   C       -5.99470        -2.17867        -9.76571
   C       -5.55514        -1.20645       -10.62890
   C       -5.95278         0.09614       -10.27684
   S       -6.96490         0.04893        -8.85871
   C       -5.59459         1.30433       -10.87070
   C       -5.93699         2.50630       -10.28505
   C       -5.64081         3.81889       -10.63005
   C       -5.22032         4.43475       -11.85484
   C       -5.32405         3.92335       -13.12895
   C       -4.88580         4.59462       -14.28610
   N       -4.52732         5.08093       -15.26340
   C       -5.96654         2.71527       -13.45807
   N       -6.51791         1.76792       -13.80247
   C       -4.83297         5.81260       -11.54113
   C       -5.14388         6.06875       -10.18170
   C       -5.66466         4.83296        -9.57644
   O       -5.98525         4.67437        -8.40024
   C       -4.94016         7.29250        -9.59345
   C       -4.39673         8.31301       -10.38237
   C       -4.07810         8.04422       -11.73283
   C       -4.28976         6.80503       -12.32993
   S       -3.41012         9.43996       -12.52221
   C       -3.57091        10.35574       -11.04704
   C       -4.09502         9.65334       -10.01516
  Br       -3.03056        12.15215       -11.00881
   H      -10.30617         2.64344         2.02598
   H       -6.24345         5.05316         3.71056
   H      -11.23810         2.90356         4.64138
   H       -5.67624         4.46194        -1.83221
   H       -8.42107         3.26463        -2.39698
   H       -5.83205         4.41377        -5.31445
   H       -7.37189         4.54443        -6.19585
   H       -5.71804         2.44337        -3.46655
   H       -7.16591         1.45575        -3.26667
   H       -5.69665         3.26204        -7.27408
   H       -4.88783         1.74129        -7.43928
   H       -8.49917         1.29625        -5.73714
   H       -9.69316         3.69956        -4.84270
   H      -11.03649        -0.21146        -1.45714
   H       -8.80967        -0.09211        -4.63175
   H      -10.24898        -1.88146        -2.63012
   H       -9.18184        -3.68802        -3.68562
   H       -7.88364        -4.85930        -5.50683
   H       -6.76014        -4.41771        -7.78307
   H       -5.76512        -3.22460        -9.86540
   H       -4.94198        -1.39408       -11.49209
   H       -4.98707         1.25932       -11.76047
   H       -6.44309         2.42942        -9.32530
   H       -5.19448         7.46264        -8.55893
   H       -4.02749         6.65037       -13.36312
   H       -4.26277        10.06141        -9.03517
*
