# ORCA input file
# SCF done       -163.600999626549          0.000970581369
! CAM-B3LYP def2-SVP def2/J RIJCOSX Grid4 TightSCF
%maxcore 5000
%tddft
    Mode sTDDFT
    Ethresh 5.0
    maxcore 5000
end

%pal
  nprocs 6
  end
* xyz 0 1
   C       -4.21467        -1.79262        -3.58377
   C       -3.59226        -2.93633        -3.16134
   C       -3.81164        -4.20576        -3.73476
   N       -3.94187        -5.26248        -4.16493
   C       -2.60408        -3.01155        -2.15471
   N       -1.77358        -3.17529        -1.37954
   C       -5.12603        -1.69051        -4.70890
   C       -5.34231        -0.32032        -4.99403
   C       -6.13689         0.10322        -6.03174
   C       -6.77413        -0.87278        -6.80536
   C       -6.57908        -2.24074        -6.49238
   C       -5.75024        -2.66950        -5.46545
   S       -7.48442        -3.27551        -7.55702
   C       -8.08151        -1.87775        -8.41197
   C       -7.64431        -0.69616        -7.91409
  Br       -9.23143        -2.10994        -9.87057
   C       -4.61205         0.51823        -4.01791
   O       -4.55362         1.72174        -4.03235
   C       -4.01338        -0.44685        -3.04251
   C       -3.53485        -0.20800        -1.80171
   C       -3.35113         1.04194        -1.08419
   N       -3.18958         0.87896         0.23714
   C       -3.01189         1.97452         0.95391
   C       -3.00350         3.23864         0.39235
   C       -3.18573         3.31730        -0.99906
   N       -3.33934         2.19929        -1.71510
   C       -3.23849         4.57906        -1.69547
   C       -3.49317         4.59402        -3.02242
   C       -3.68300         5.67937        -3.91308
   S       -4.23994         5.23307        -5.49862
   C       -4.35296         6.89865        -5.99546
   C       -3.95076         7.74409        -4.96123
   C       -3.56354         7.06143        -3.80116
   C       -3.07348         7.77533        -2.58069
   C       -2.69881         9.22030        -2.90139
   C       -3.81851         9.90041        -3.70308
   N       -3.64482        11.33014        -3.89057
   C       -3.91981         9.23450        -5.07701
   C       -4.83310         7.22102        -7.28301
   C       -5.15512         6.23957        -8.17827
   C       -5.72244         6.37130        -9.44757
   C       -6.01680         5.26051       -10.21068
   C       -6.67002         5.18090       -11.45961
   C       -6.84789         3.90714       -11.92273
   C       -6.32166         2.91420       -11.07235
   S       -5.60810         3.64345        -9.65609
   C       -6.30615         1.53756       -11.22306
   C       -6.92049         0.73436       -12.20265
   C       -6.72113        -0.60308       -12.02008
   C       -5.92465        -0.92571       -10.89593
   S       -5.43909         0.53961       -10.06987
   C       -5.59878        -2.19612       -10.48075
   C       -4.79167        -2.56027        -9.39873
   S       -3.91662        -1.39050        -8.44027
   C       -3.23261        -2.59690        -7.44899
   C       -3.63338        -3.87042        -7.80680
   C       -4.53790        -3.86183        -8.91772
   C       -5.06778        -5.09971        -9.35932
   C       -5.99843        -5.21007       -10.41454
   N       -6.77031        -5.36633       -11.25005
   C       -4.68717        -6.27034        -8.72821
   C       -3.77806        -6.26130        -7.66078
   C       -3.25155        -5.08807        -7.20071
   H       -6.26423         1.15351        -6.24125
   H       -5.62600        -3.72171        -5.27045
   H       -7.91998         0.26234        -8.31362
   H       -3.29318        -1.05565        -1.17127
   H       -2.87620         1.82275         2.01769
   H       -2.86412         4.12466         0.99079
   H       -3.11235         5.46893        -1.09864
   H       -3.62940         3.61838        -3.47285
   H       -2.20848         7.24924        -2.17016
   H       -3.86253         7.76235        -1.82116
   H       -1.77662         9.24115        -3.48864
   H       -2.51934         9.76656        -1.97172
   H       -4.76710         9.76277        -3.16958
   H       -2.75821        11.51997        -4.34728
   H       -3.64112        11.81020        -2.99749
   H       -3.05488         9.53409        -5.67940
   H       -4.81131         9.59957        -5.58914
   H       -4.95538         8.26426        -7.53727
   H       -4.97202         5.21943        -7.85794
   H       -5.96834         7.34929        -9.83726
   H       -6.99994         6.06455       -11.97740
   H       -7.33035         3.66187       -12.85206
   H       -7.50521         1.15642       -12.99996
   H       -7.12492        -1.37276       -12.65329
   H       -6.01798        -3.00468       -11.06327
   H       -2.55818        -2.32175        -6.66296
   H       -5.10211        -7.20702        -9.07000
   H       -3.50320        -7.19641        -7.19905
   H       -2.55677        -5.07209        -6.37656
*
