# ORCA input file
# SCF done       -204.827992730205          0.000539590756
! CAM-B3LYP def2-SVP def2/J RIJCOSX Grid4 TightSCF
%maxcore 5000
%tddft
    Mode sTDDFT
    Ethresh 5.0
    maxcore 5000
end

%pal
  nprocs 6
  end
* xyz 0 1
   C       -7.43289         7.04931         2.97000
   C       -7.59050         6.47180         4.20258
   C       -6.88839         6.86689         5.35976
   N       -6.34791         7.14934         6.33210
   C       -8.47809         5.40852         4.46710
   N       -9.19290         4.54768         4.72337
   C       -6.52492         8.14784         2.64856
   C       -6.63658         8.44993         1.26629
   C       -5.90696         9.44632         0.66372
   C       -5.02826        10.18516         1.46242
   C       -4.92455         9.87888         2.84044
   C       -5.65940         8.86755         3.44906
   S       -3.78698        10.91727         3.64198
   C       -3.47068        11.73968         2.13748
   C       -4.17851        11.26085         1.08651
  Br       -2.23726        13.15147         2.09405
   C       -7.62903         7.55359         0.66323
   O       -7.99297         7.52117        -0.50861
   C       -8.12140         6.69853         1.74842
   C       -9.10978         5.76910         1.53822
   N       -9.62757         5.60505         0.31504
   C      -10.67606         4.81667        -0.03198
   S      -11.61985         3.97379         1.15801
   C      -12.70227         3.46099        -0.09516
   N      -13.79661         2.66029         0.26542
   O      -14.55773         2.31878        -0.61930
   O      -13.90023         2.37227         1.44318
   C      -12.35723         3.91458        -1.33946
   C      -11.17669         4.68200        -1.33242
   C      -10.60351         5.25290        -2.52573
   C       -9.28393         5.45657        -2.72556
   C       -8.65250         6.05509        -3.85390
   S       -6.96669         5.68568        -4.06943
   C       -9.10285         6.95099        -4.81939
   C      -10.49066         7.50520        -4.86865
   C      -11.39254         6.70291        -5.81919
   N      -12.67805         7.36558        -5.93010
   C       -8.10453         7.30843        -5.73724
   C       -8.29499         8.30360        -6.83556
   C       -7.80197         9.69446        -6.40202
   N       -8.16420        10.66683        -7.41403
   C       -6.87096         6.69452        -5.48323
   C       -5.69662         6.82480        -6.23885
   C       -4.47928         6.22847        -6.01785
   C       -3.33119         6.37757        -6.83634
   C       -2.24765         5.66631        -6.41890
   C       -2.48038         4.91687        -5.24465
   S       -4.11721         5.15090        -4.68250
   C       -1.60089         4.08143        -4.57605
   C       -0.26110         3.78574        -4.89916
   C        0.32876         2.90519        -4.03847
   C       -0.51503         2.46579        -2.99509
   S       -2.08994         3.20482        -3.14306
   C       -0.19549         1.56133        -1.99833
   C       -1.08386         1.18999        -0.99802
   C       -0.91418         0.26090         0.00831
   C       -1.79139         0.33260         1.19655
   O       -2.78511         1.01636         1.32923
   C       -1.17305        -0.56197         2.19790
   C       -1.54427        -0.79280         3.48979
   C       -0.77328        -1.67692         4.27872
   C        0.37490        -2.29818         3.70918
   C        1.14482        -3.17172         4.50221
   C        0.78875        -3.42031         5.79825
   C       -0.34848        -2.80787         6.35925
   C       -1.11437        -1.95339         5.61650
   F       -0.67469        -3.07008         7.63370
   F        1.52295        -4.25335         6.55041
   C        0.72975        -2.04426         2.36309
   C       -0.03827        -1.19424         1.61524
   C        0.05499        -0.77767         0.21328
   C        0.79899        -1.42892        -0.74490
   C        0.66510        -1.23433        -2.13296
   N        0.57098        -1.15965        -3.27574
   C        1.71501        -2.45973        -0.46046
   N        2.49226        -3.28863        -0.29063
   H       -6.01324         9.65190        -0.38990
   H       -5.54496         8.67354         4.50234
   H       -4.10622        11.65051         0.08759
   H       -9.50328         5.14780         2.33239
   H       -9.21836         6.22710        -0.40691
   H      -12.92710         3.67872        -2.22004
   H      -11.31333         5.45090        -3.31267
   H       -8.58195         5.07188        -1.99616
   H      -10.46873         8.53543        -5.22380
   H      -10.92302         7.50917        -3.86688
   H      -11.45717         5.65575        -5.47352
   H      -10.94262         6.68491        -6.81559
   H      -13.16561         7.35841        -5.04039
   H      -13.26621         6.90224        -6.61273
   H       -9.34706         8.39038        -7.09955
   H       -7.75313         7.99396        -7.73134
   H       -6.71844         9.64608        -6.19396
   H       -8.30418         9.97810        -5.47284
   H       -7.66635        10.48850        -8.27963
   H       -7.94097        11.60725        -7.11078
   H       -5.75479         7.46135        -7.11169
   H       -3.34612         7.00235        -7.71209
   H       -1.29813         5.65741        -6.92243
   H        0.23182         4.22238        -5.74899
   H        1.33983         2.55021        -4.12675
   H        0.80611         1.15837        -2.01433
   H       -2.01296         1.75029        -0.93240
   H       -2.41466        -0.30864         3.90589
   H        2.01703        -3.65209         4.08702
   H       -1.98241        -1.49173         6.06048
   H        1.60644        -2.52683         1.96197
*
