# ORCA input file
# SCF done       -214.109525364666          0.000601109300
! CAM-B3LYP def2-SVP def2/J RIJCOSX Grid4 TightSCF
%maxcore 5000
%tddft
    Mode sTDDFT
    Ethresh 5.0
    maxcore 5000
end

%pal
  nprocs 6
  end
* xyz 0 1
   C       -7.90677       -14.53211        -7.74795
   C       -8.81806       -14.46515        -8.76494
   F       -9.04121       -15.53264        -9.53967
   C       -9.53353       -13.27537        -9.00965
   F      -10.42047       -13.23846       -10.01127
   C       -9.32876       -12.16925        -8.23281
   C       -8.40001       -12.20859        -7.17486
   C       -7.67447       -13.41020        -6.92804
   C       -6.73775       -13.47392        -5.87038
   C       -6.53893       -12.37416        -5.07971
   C       -7.27446       -11.17813        -5.32909
   C       -8.17878       -11.08461        -6.34859
   C       -6.89483       -10.17197        -4.33211
   O       -7.31959        -9.02594        -4.21852
   C       -5.89986       -10.81167        -3.46309
   C       -5.66174       -12.15938        -3.92992
   C       -4.78157       -13.07028        -3.40967
   C       -3.94567       -12.81397        -2.30299
   N       -3.25141       -12.63838        -1.40596
   C       -4.59615       -14.37332        -3.91709
   N       -4.40518       -15.44295        -4.28594
   C       -5.36675       -10.15483        -2.38320
   N       -5.73945        -8.89758        -2.11027
   C       -5.34128        -8.14395        -1.05646
   S       -4.22805        -8.75261         0.12637
   C       -4.36791        -7.25672         0.99158
   N       -3.60564        -7.11697         2.16599
   O       -3.69169        -6.07003         2.77256
   O       -2.91510        -8.06911         2.47667
   C       -5.21684        -6.35728         0.41229
   C       -5.79183        -6.84472        -0.78189
   C       -6.69079        -6.10983        -1.62628
   C       -7.29370        -4.95922        -1.25935
   C       -8.13315        -4.17815        -2.09385
   S       -8.44545        -4.49097        -3.79066
   C       -9.45006        -3.06615        -3.98207
   C       -9.53853        -2.41014        -2.76631
   C       -8.80480        -3.03237        -1.73178
   C       -8.98047        -2.24371        -0.51439
   O       -8.54308        -2.39569         0.58615
   O       -9.81182        -1.19193        -0.85434
   C      -10.17974        -1.23406        -2.18110
   O      -10.90391        -0.41128        -2.66627
   C       -9.97686        -2.75642        -5.26270
   C      -10.68680        -1.62536        -5.49515
   N      -11.22189        -1.20353        -6.67086
   C      -11.03071        -1.65530        -7.92983
   S       -9.78610        -2.77692        -8.38350
   C      -10.15294        -2.50794       -10.06046
   N       -9.41507        -3.23178       -11.00319
   O       -9.66068        -3.04883       -12.17987
   O       -8.57586        -3.99906       -10.56150
   C      -11.16858        -1.61405       -10.25660
   C      -11.71306        -1.13827        -9.04949
   C      -12.85618        -0.26966        -9.00244
   C      -13.81714        -0.29473        -8.05047
   C      -14.98523         0.51827        -8.05163
   C      -15.17477         1.78851        -8.50249
   C      -16.57181         2.25441        -8.75800
   O      -17.58713         1.68625        -8.43553
   C      -16.43154         3.51177        -9.51726
   C      -17.40288         4.28642       -10.08245
   C      -17.02853         5.45852       -10.77755
   C      -15.64825         5.80031       -10.88057
   C      -15.28130         6.96954       -11.57678
   C      -16.23968         7.76457       -12.14047
   C      -17.60467         7.42606       -12.03712
   C      -17.99208         6.29714       -11.37038
   F      -18.52078         8.22213       -12.59997
   F      -15.89027         8.87571       -12.79804
   C      -14.66468         4.97969       -10.28303
   C      -15.05173         3.85518        -9.60298
   C      -14.27805         2.86471        -8.86053
   C      -13.00173         3.05975        -8.38774
   C      -12.39696         2.17897        -7.48516
   N      -11.90506         1.45918        -6.73483
   C      -12.19986         4.17631        -8.70312
   N      -11.50219         5.05391        -8.94587
   H       -7.36714       -15.45009        -7.57484
   H       -9.88374       -11.26644        -8.43408
   H       -6.20405       -14.39664        -5.71030
   H       -8.72058       -10.16701        -6.52011
   H       -4.64928       -10.61630        -1.71699
   H       -6.43179        -8.51584        -2.78137
   H       -5.39412        -5.38434         0.83243
   H       -6.88406        -6.50224        -2.61683
   H       -7.16775        -4.55359        -0.26497
   H       -9.76756        -3.47492        -6.04022
   H      -10.89739        -0.95347        -4.67370
   H      -11.67132        -0.27316        -6.62209
   H      -11.52486        -1.34358       -11.23417
   H      -12.98809         0.37203        -9.86490
   H      -13.78263        -1.06074        -7.28644
   H      -15.88976         0.03906        -7.68630
   H      -18.44311         4.01179        -9.99681
   H      -14.24184         7.24553       -11.66188
   H      -19.04039         6.05260       -11.30015
   H      -13.62773         5.25767       -10.38449
*
