# ORCA input file
# SCF done       -208.246674362816          0.000728709476
! CAM-B3LYP def2-SVP def2/J RIJCOSX Grid4 TightSCF
%maxcore 5000
%tddft
    Mode sTDDFT
    Ethresh 5.0
    maxcore 5000
end

%pal
  nprocs 6
  end
* xyz 0 1
   C       -3.15205        -9.52239       -17.19391
   C       -2.38521       -10.13885       -18.14236
   F       -2.18022        -9.55142       -19.32933
   C       -1.80113       -11.39530       -17.88655
   F       -1.05264       -11.97676       -18.83480
   C       -1.99200       -12.01839       -16.68520
   C       -2.77666       -11.40858       -15.68733
   C       -3.36851       -10.13843       -15.94497
   C       -4.16141        -9.50720       -14.95903
   C       -4.35333       -10.12672       -13.75262
   C       -3.75250       -11.38967       -13.50165
   C       -2.98636       -12.02649       -14.43428
   C       -4.08674       -11.83245       -12.13219
   O       -3.74891       -12.88949       -11.63632
   C       -4.86966       -10.73121       -11.53606
   C       -5.10502        -9.73375       -12.56387
   C       -5.93830        -8.64618       -12.48963
   C       -6.75987        -8.30275       -11.39528
   N       -7.47645        -7.96065       -10.56460
   C       -6.12505        -7.72521       -13.54152
   N       -6.31802        -6.93697       -14.35379
   C       -5.23043       -10.55138       -10.22166
   C       -5.12128       -11.38700        -9.10274
   S       -5.55640       -10.65605        -7.54944
   C       -5.21699       -12.12414        -6.75253
   C       -4.80580       -13.13783        -7.63467
   C       -4.75188       -12.72418        -8.94798
   C       -4.52331       -14.41703        -6.88153
   C       -5.47469       -15.53560        -7.31690
   C       -3.06528       -14.85147        -7.05288
   C       -4.80780       -13.97288        -5.46602
   C       -5.21200       -12.63599        -5.43978
   S       -5.53385       -12.08103        -3.84863
   C       -5.11693       -13.65530        -3.20359
   C       -4.75715       -14.54705        -4.20359
   C       -5.16371       -13.83855        -1.79446
   C       -4.84980       -14.98075        -1.14852
   N       -4.86427       -15.08065         0.21346
   C       -4.61655       -16.20089         0.93329
   S       -4.49136       -17.74918         0.15866
   C       -4.32455       -18.50063         1.71600
   N       -4.15382       -19.88399         1.74011
   O       -4.03599       -20.42672         2.82399
   O       -4.13616       -20.44923         0.65675
   C       -4.37166       -17.60862         2.75371
   C       -4.51487       -16.27518         2.32900
   C       -4.51686       -15.17061         3.25822
   C       -4.15611       -13.89848         3.01024
   C       -4.16354       -12.88209         4.02547
   C       -3.84070       -11.59362         3.84105
   C       -3.42502       -11.00531         2.52458
   C       -3.88903       -10.62221         4.98795
   N       -2.58309       -10.03447         5.19742
   C       -2.39291        -8.91597         5.90133
   C       -1.16366        -8.46520         6.29603
   C       -0.90734        -7.29207         7.01548
   C       -1.71794        -6.45166         7.74620
   C       -1.19269        -5.09205         8.02219
   O       -0.07333        -4.68592         7.79478
   C       -2.32430        -4.33065         8.59023
   C       -2.39324        -3.00979         8.92217
   C       -3.60841        -2.49135         9.42520
   C       -4.72983        -3.35797         9.56599
   C       -5.94164        -2.83536        10.05965
   C       -6.03451        -1.51508        10.40038
   C       -4.92439        -0.65934        10.26210
   C       -3.73551        -1.13597         9.78493
   F       -5.04422         0.63231        10.60241
   F       -7.18892        -1.02067        10.87032
   C       -4.62306        -4.72532         9.21903
   C       -3.43301        -5.20734         8.74549
   C       -3.02310        -6.55524         8.33785
   C       -3.71359        -7.69399         8.69364
   C       -3.26241        -9.00598         8.49191
   N       -2.96042       -10.10372         8.32578
   C       -4.95899        -7.69384         9.35177
   N       -5.98464        -7.77745         9.86273
   H       -3.59322        -8.56103       -17.40619
   H       -1.53754       -12.98001       -16.50492
   H       -4.59084        -8.54465       -15.18402
   H       -2.54406       -12.98712       -14.21799
   H       -5.65275        -9.58179        -9.98313
   H       -4.45470       -13.32975        -9.78390
   H       -5.30662       -15.77698        -8.36302
   H       -6.50931       -15.22402        -7.19224
   H       -5.30366       -16.42636        -6.71768
   H       -2.86776       -15.07599        -8.09755
   H       -2.86624       -15.73881        -6.45718
   H       -2.39311       -14.05793        -6.73427
   H       -4.47034       -15.56301        -4.00566
   H       -5.46661       -12.97499        -1.21624
   H       -4.54751       -15.87452        -1.67164
   H       -5.14439       -14.26096         0.74025
   H       -4.27956       -17.91300         3.78064
   H       -4.79428       -15.43901         4.26931
   H       -3.79085       -13.60690         2.03643
   H       -4.46456       -13.20748         5.01260
   H       -4.28978       -10.89057         1.87003
   H       -2.69903       -11.63546         2.01547
   H       -2.98321       -10.02323         2.67191
   H       -4.22338       -11.12321         5.90644
   H       -4.59354        -9.81313         4.76467
   H       -1.80385       -10.67692         5.13905
   H       -3.27524        -8.30857         6.05338
   H       -0.29926        -9.04075         5.99134
   H        0.11694        -6.93180         6.96046
   H       -1.53374        -2.36791         8.80307
   H       -6.80043        -3.47796        10.17588
   H       -2.89436        -0.46797         9.68500
   H       -5.49264        -5.35246         9.33191
*
