# ORCA input file
# SCF done       -187.141491231244          0.000921866784
! CAM-B3LYP def2-SVP def2/J RIJCOSX Grid4 TightSCF
%maxcore 5000
%tddft
    Mode sTDDFT
    Ethresh 5.0
    maxcore 5000
end

%pal
  nprocs 6
  end
* xyz 0 1
   C        0.54020        -3.94130        -4.41565
   C        1.78128        -4.25621        -4.02432
   C        3.01840        -3.90918        -4.66522
   C        4.12092        -4.37999        -4.04464
   C        3.85446        -5.13102        -2.86309
   S        2.12701        -5.21392        -2.57349
   C        4.76795        -5.73667        -2.04043
   C        6.16647        -5.87236        -2.24778
   C        6.80095        -6.58319        -1.28760
   C        5.95093        -7.04331        -0.23577
   S        4.29940        -6.51002        -0.53552
   C        6.39665        -7.74662         0.83806
   N        5.69834        -8.23951         1.91362
   C        4.36822        -8.47932         2.07254
   S        3.70953        -8.24912         3.66919
   C        2.15415        -8.76145         3.09519
   N        1.10061        -8.80169         4.01256
   O        0.00683        -9.14976         3.60563
   O        1.35966        -8.47706         5.16031
   C        2.15368        -9.08917         1.76854
   C        3.41787        -8.95607         1.15854
   C        3.70579        -9.31002        -0.20327
   C        2.80830        -9.77369        -1.09189
   C        3.14384        -9.96139        -2.48494
   N        4.24683        -9.43475        -2.94573
   N        2.26417       -10.70438        -3.19038
   C        2.05087       -10.50634        -4.46832
   C        2.77221        -9.44735        -5.13309
   C        2.30869        -8.35354        -5.78285
   S        3.31697        -6.98162        -5.83416
   C        4.73287        -7.80082        -5.30235
   S        4.47663        -9.38036        -4.59856
   C        1.06010       -11.27551        -5.14325
   S        0.67513       -10.95727        -6.80474
   C       -0.51696       -12.23101        -6.82198
   C       -0.55866       -12.88832        -5.59523
   C        0.32281       -12.34744        -4.65099
   C        0.48599       -12.89543        -3.27389
   C       -0.55769       -13.97492        -2.95467
   C       -0.11591       -14.73286        -1.80636
   N        0.27352       -15.32313        -0.90928
   C       -0.75414       -14.91717        -4.15757
   O       -1.61401       -15.95985        -3.75739
   C       -1.50287       -17.13689        -4.52220
   C       -1.35423       -14.11853        -5.32480
   C       -1.23499       -12.46179        -8.01732
   C       -2.43549       -13.09371        -8.13677
   C       -3.09830       -13.29194        -9.37064
   C       -2.56354       -13.38577       -10.62494
   C       -3.43018       -13.13410       -11.80617
   O       -4.63685       -13.05020       -11.81726
   C       -2.49868       -12.95340       -12.93970
   C       -2.77124       -12.58148       -14.22383
   C       -1.70382       -12.44275       -15.13987
   C       -0.37026       -12.68973       -14.70212
   C        0.68993       -12.54333       -15.61896
   C        0.43800       -12.17191       -16.90985
   C       -0.88110       -11.92868       -17.34174
   C       -1.93078       -12.06121       -16.47629
   F       -1.09861       -11.56332       -18.61265
   F        1.44767       -12.03400       -17.77985
   C       -0.11953       -13.08054       -13.36647
   C       -1.17017       -13.21635       -12.49922
   C       -1.21997       -13.62560       -11.09690
   C       -0.23726       -14.33652       -10.45158
   C       -0.41354       -14.94676        -9.19702
   N       -0.51928       -15.50588        -8.19850
   C        1.03001       -14.60440       -11.00469
   N        2.08305       -14.83399       -11.40061
   H        0.37756        -3.35976        -5.30579
   H       -0.32530        -4.25227        -3.85986
   H        3.02244        -3.32216        -5.56608
   H        5.12693        -4.20877        -4.38456
   H        6.65270        -5.45611        -3.11198
   H        7.85285        -6.80684        -1.28705
   H        7.46275        -7.91602         0.91093
   H        6.23477        -8.29510         2.77049
   H        1.26747        -9.43576         1.27087
   H        4.72805        -9.21785        -0.53639
   H        1.78348        -9.98455        -0.83212
   H        1.29327        -8.23399        -6.11500
   H        5.52025        -7.18653        -4.90572
   H        0.43174       -12.08072        -2.54860
   H        1.49339       -13.31436        -3.18247
   H       -1.52635       -13.52404        -2.71241
   H        0.22446       -15.32658        -4.45634
   H       -2.19382       -17.84926        -4.07677
   H       -0.48453       -17.53973        -4.47624
   H       -1.77218       -16.97221        -5.57044
   H       -2.38685       -13.86726        -5.06083
   H       -1.37115       -14.73718        -6.22577
   H       -0.79876       -12.02103        -8.90642
   H       -2.98454       -13.36766        -7.24928
   H       -4.18338       -13.31174        -9.34026
   H       -3.78702       -12.39523       -14.53779
   H        1.70549       -12.72934       -15.30571
   H       -2.93483       -11.87143       -16.82234
   H        0.89979       -13.25351       -13.05996
*
