# ORCA input file
# SCF done       -181.124754878927          0.000666560278
! CAM-B3LYP def2-SVP def2/J RIJCOSX Grid4 TightSCF
%maxcore 5000
%tddft
    Mode sTDDFT
    Ethresh 5.0
    maxcore 5000
end

%pal
  nprocs 6
  end
* xyz 0 1
   C       -3.49109         0.35579         4.08649
   C       -3.31589        -0.89605         3.55272
   C       -2.67364        -1.95805         4.22049
   N       -2.17220        -2.86604         4.71367
   C       -3.73391        -1.29090         2.26513
   N       -4.02236        -1.69256         1.22844
   C       -2.98433         0.81282         5.37420
   C       -3.29229         2.18854         5.51908
   C       -2.93997         2.91275         6.63222
   C       -2.24588         2.25076         7.64919
   C       -1.94427         0.87671         7.49669
   C       -2.30324         0.14257         6.37197
   S       -1.09153         0.26457         8.87870
   C       -1.14361         1.82122         9.63195
   C       -1.76845         2.76069         8.88960
   C       -4.03167         2.65603         4.33545
   O       -4.54392         3.75199         4.20316
   C       -4.13241         1.47776         3.43599
   C       -4.88152         1.43974         2.29257
   C       -5.29277         2.59698         1.58475
   C       -4.49985         3.76774         1.53407
   C       -5.02793         5.00881         1.03558
   N       -4.25164         6.10151         1.02720
   C       -3.03048         6.02757         1.49898
   C       -2.48577         4.77534         1.92624
   N       -3.21691         3.68869         1.91047
   C       -1.13781         4.69056         2.35195
   N       -0.05411         4.66113         2.72308
   C       -2.24644         7.20544         1.54377
   N       -1.60111         8.15030         1.61059
   C       -6.34528         5.11326         0.52288
   C       -7.02219         3.89062         0.33024
   C       -6.50740         2.65000         0.87097
   N       -7.34663         1.63572         0.67869
   S       -8.63579         2.16731        -0.12171
   N       -8.21580         3.71400        -0.24137
   C       -6.95323         6.39130         0.25542
   C       -6.73134         7.51926         1.12068
   C       -6.17456         7.55416         2.37244
   S       -6.16763         9.12630         3.03890
   C       -6.92958         9.78063         1.66295
   C       -7.20575         8.81492         0.71861
   C       -7.93934         8.97664        -0.49387
   N       -8.13322        10.21140        -0.99346
   C       -8.36493         7.81566        -1.17282
   C       -7.80410         6.57125        -0.81169
   C       -9.32392         7.83215        -2.23909
   C      -10.44663         8.60564        -2.34139
   C      -11.41738         8.53703        -3.37868
   C      -12.50887         9.32770        -3.19150
   C      -12.48273        10.07119        -1.99135
   S      -11.00413         9.74104        -1.10843
   C      -13.42277        10.94404        -1.48359
   C      -14.66543        11.32924        -2.03416
   C      -15.36014        12.20659        -1.25906
   C      -14.71725        12.56751        -0.04675
   S      -13.17091        11.73995         0.05454
   C      -15.21832        13.41551         0.90617
   C      -14.63605        13.79012         2.13636
   C      -13.41631        13.41713         2.70202
   C      -13.29016        14.04846         3.96617
   C      -12.29374        14.00034         4.91303
   C      -12.47443        14.74643         6.09069
   C      -11.67813        14.89821         7.21356
   C      -12.33473        15.77494         8.13831
   C      -13.53684        16.16254         7.58023
   C      -13.67269        15.54314         6.29629
   C      -14.66530        15.59501         5.35817
   C      -14.48884        14.84312         4.17338
   C      -15.28927        14.67955         3.06358
   C      -11.84422        16.18948         9.43046
   C      -10.68988        15.81590         9.97621
   H       -3.18884         3.95963         6.71365
   H       -2.05479        -0.90353         6.30463
   H       -0.69552         1.93711        10.59964
   H       -1.89575         3.78358         9.19497
   H       -5.23636         0.49445         1.90304
   H       -5.78814         6.74439         2.95762
   H       -7.18290        10.82211         1.65292
   H       -7.84405        11.02028        -0.47583
   H       -8.63989        10.33997        -1.85069
   H       -8.04957         5.71669        -1.42224
   H       -9.22669         7.04491        -2.97622
   H      -11.27091         7.89668        -4.23063
   H      -13.33410         9.39273        -3.87782
   H      -15.00943        10.94971        -2.97961
   H      -16.32468        12.60889        -1.51563
   H      -16.18985        13.84402         0.69051
   H      -12.68097        12.76274         2.27599
   H      -11.40135        13.40855         4.76654
   H      -10.72172        14.43433         7.37060
   H      -14.26102        16.81935         8.02659
   H      -15.56022        16.18389         5.50356
   H      -16.25171        15.13033         2.89695
   H      -12.49957        16.86036         9.97219
   H      -10.00602        15.15069         9.47759
   H      -10.38827        16.16504        10.94844
*
