# ORCA input file
# SCF done       -182.613890400758          0.000628027305
! CAM-B3LYP def2-SVP def2/J RIJCOSX Grid4 TightSCF
%maxcore 5000
%tddft
    Mode sTDDFT
    Ethresh 5.0
    maxcore 5000
end

%pal
  nprocs 6
  end
* xyz 0 1
   C       -8.27478        -3.19917         2.38206
   C       -7.63631        -3.82947         3.41423
   C       -7.72348        -5.21480         3.67455
   N       -7.75202        -6.33074         3.94050
   C       -6.80870        -3.20358         4.37154
   N       -6.12836        -2.77404         5.19044
   C       -9.15140        -3.83322         1.40940
   C       -9.64098        -2.85042         0.51295
   C      -10.50812        -3.14661        -0.51150
   C      -10.91502        -4.47583        -0.65944
   C      -10.41849        -5.45302         0.23828
   C       -9.54135        -5.15479         1.27184
   S      -11.04763        -7.03138        -0.12412
   C      -11.95795        -6.36745        -1.45514
   C      -11.79923        -5.03267        -1.62289
  Br      -13.02987        -7.49844        -2.49691
   C       -9.08387        -1.53512         0.86786
   O       -9.25082        -0.49380         0.27471
   C       -8.23847        -1.77125         2.07559
   C       -7.60207        -0.80378         2.76168
   C       -7.78764         0.62979         2.49578
   S       -6.38775         1.73821         3.01089
   C       -7.71546         2.14131         4.06410
   C       -8.62501         1.27143         3.58486
   C       -9.96461         0.85624         3.97932
   O      -10.52703        -0.11634         3.52777
   O      -10.47733         1.67055         4.90781
   C      -11.78150         1.32743         5.41082
   C      -11.72270         0.15480         6.33080
   C      -11.60105         0.25108         7.66742
   C      -11.50242        -0.83120         8.60292
   C      -11.40106        -0.44889         9.89497
   C      -11.41115         0.95894        10.09221
   S      -11.56198         1.78367         8.54422
   C      -11.30447         1.63991        11.27552
   C      -11.13776         1.11024        12.58335
   C      -11.03116         2.04359        13.55997
   C      -11.11036         3.38619        13.09866
   S      -11.33860         3.39287        11.33817
   C      -11.01903         4.52598        13.82970
   N      -11.11460         5.76320        13.27391
   C      -10.99820         6.97508        13.91520
   C      -10.83273         7.18184        15.25612
   S      -10.73880         8.85329        15.64840
   C      -10.91063         9.30084        14.00636
   C      -11.04401         8.21703        13.18978
   N      -11.16467         8.24003        11.79736
   C      -11.82971         9.13272        11.03651
   C      -12.65423        10.13199        11.45717
   C      -13.32078        10.94042        10.52043
   C      -14.18596        11.98068        10.73336
   C      -14.53152        12.74036        11.90815
   C      -13.72759        13.00245        12.99153
   C      -14.11372        13.79802        14.08810
   N      -14.38278        14.41934        15.01556
   C      -12.38301        12.60508        13.08377
   N      -11.26790        12.34785        13.19171
   C      -15.80826        13.39987        11.64292
   C      -16.12455        13.23700        10.27132
   C      -15.08810        12.39599         9.63421
   O      -15.01345        12.07361         8.46820
   C      -17.24788        13.78573         9.70401
   C      -18.10675        14.51778        10.53189
   C      -17.79021        14.65940        11.90309
   C      -16.64748        14.11360        12.47581
   S      -18.99437        15.58765        12.74506
   C      -19.89173        15.77463        11.26193
   C      -19.32228        15.17291        10.19123
  Br      -21.49738        16.74485        11.26857
   H      -10.86400        -2.37386        -1.17461
   H       -9.19308        -5.93476         1.92799
   H      -12.28569        -4.46283        -2.39331
   H       -7.00018        -1.04227         3.62815
   H       -8.11904         0.84697         1.48165
   H       -7.72721         2.87658         4.84416
   H      -12.43341         1.10892         4.55805
   H      -12.11594         2.22673         5.93232
   H      -11.71120        -0.82213         5.87121
   H      -11.50982        -1.85097         8.26189
   H      -11.31916        -1.13002        10.72338
   H      -11.09630         0.04966        12.75335
   H      -10.89578         1.82341        14.60399
   H      -10.85219         4.47787        14.89343
   H      -11.33094         5.77826        12.28596
   H      -10.77019         6.45789        16.04109
   H      -10.86826        10.33747        13.73068
   H      -10.63749         7.53020        11.30744
   H      -11.68223         8.99650         9.97232
   H      -12.83889        10.27086        12.50923
   H      -13.21865        10.65939         9.47644
   H      -17.45998        13.65540         8.65444
   H      -16.44990        14.24438        13.52687
   H      -19.74047        15.18837         9.20135
*
