# ORCA input file
# SCF done       -212.733079245724          0.000226297537
! CAM-B3LYP def2-SVP def2/J RIJCOSX Grid4 TightSCF
%maxcore 5000
%tddft
    Mode sTDDFT
    Ethresh 5.0
    maxcore 5000
end

%pal
  nprocs 6
  end
* xyz 0 1
   C       -4.65727        -3.13710        -1.54807
   C       -5.36850        -4.06026        -2.26853
   C       -5.04574        -5.43224        -2.33068
   N       -4.83598        -6.55776        -2.41347
   C       -6.49392        -3.77446        -3.07070
   N       -7.40242        -3.62336        -3.75676
   C       -3.44078        -3.40354        -0.79387
   C       -2.92311        -2.17392        -0.32023
   C       -1.77317        -2.09232         0.42714
   C       -1.10034        -3.28249         0.72091
   C       -1.62740        -4.50821         0.24701
   C       -2.79020        -4.59035        -0.50802
   S       -0.64354        -5.85623         0.73088
   C        0.44832        -4.77044         1.54931
   C        0.09618        -3.46536         1.46651
  Br        1.94802        -5.46260         2.43738
   C       -3.79994        -1.06434        -0.74667
   O       -3.64231         0.10651        -0.48142
   C       -4.92724        -1.70861        -1.47372
   C       -6.10674        -1.12131        -1.81083
   C       -6.43084         0.27755        -1.85329
   C       -7.75945         0.65533        -1.58132
   C       -8.10406         1.98120        -1.60898
   C       -7.14923         2.95927        -1.94979
   C       -5.84893         2.59154        -2.27102
   C       -5.49729         1.25935        -2.21616
   C       -7.78497         4.25437        -1.90663
   C       -9.13242         4.08256        -1.53709
   C       -9.44303         2.61969        -1.32344
   C      -10.52134         2.12524        -2.30628
   C      -10.14251         2.35066        -3.76506
   C       -9.89706         2.34642         0.12278
   C       -8.88450         2.81634         1.16037
   C       -9.96323         5.16586        -1.41312
   C       -9.47008         6.46287        -1.65535
   C       -8.12284         6.61177        -2.03174
   C       -7.28434         5.52668        -2.15714
   C      -10.36104         7.57396        -1.49794
   C      -10.05894         8.88948        -1.67450
   C      -10.97721         9.93427        -1.48380
   C      -10.66565        11.26208        -1.65403
   C      -11.51382        12.37913        -1.47352
   C      -10.91371        13.58129        -1.71311
   C       -9.56170        13.47770        -2.09851
   S       -9.06820        11.80689        -2.14580
   C       -8.66643        14.48956        -2.41605
   C       -8.87996        15.87794        -2.41994
   C       -7.76712        16.58206        -2.78399
   C       -6.63761        15.78684        -3.08355
   S       -7.02420        14.09977        -2.89754
   C       -5.41642        16.33041        -3.45860
   C       -4.23638        15.68476        -3.78221
   C       -3.93688        14.30117        -3.84660
   C       -2.58790        14.02789        -4.20470
   N       -2.13947        12.76753        -4.28795
   C       -3.01638        11.82402        -4.04618
   C       -4.36481        12.07899        -3.71433
   C       -5.33579        10.97823        -3.42606
   C       -5.41052        10.71959        -1.91969
   N       -4.80092        13.31969        -3.60770
   C       -1.82353        15.18542        -4.46858
   S       -2.81410        16.60178        -4.20178
   C       -0.46810        15.18269        -4.78040
   C        0.35146        16.21874        -5.16646
   C        0.06406        17.50725        -5.73254
   C       -1.00083        17.81858        -6.54767
   C       -1.20510        19.08423        -7.12492
   N       -1.42775        20.10767        -7.59746
   C       -1.93639        16.86233        -6.98566
   N       -2.68096        16.09760        -7.41139
   C        1.24941        18.34228        -5.54846
   C        2.30900        17.51920        -5.09277
   C        1.80495        16.13903        -4.90456
   O        2.43924        15.16493        -4.56164
   C        3.57405        18.00382        -4.87246
   C        3.80004        19.36662        -5.09997
   C        2.73136        20.18072        -5.54020
   C        1.45204        19.68850        -5.77439
   S        3.22957        21.83299        -5.74742
   C        4.84718        21.41078        -5.25138
   C        5.00748        20.10256        -4.94406
  Br        6.17080        22.73903        -5.18455
   H       -1.40428        -1.13933         0.77279
   H       -3.15482        -5.54787        -0.84032
   H        0.65533        -2.66347         1.91292
   H       -6.93782        -1.77810        -2.04302
   H       -8.48437        -0.10450        -1.32639
   H       -5.12206         3.33477        -2.56054
   H       -4.49843         0.96258        -2.48853
   H      -11.45602         2.64666        -2.08949
   H      -10.68671         1.05959        -2.13610
   H       -9.98873         3.40899        -3.96478
   H      -10.93513         1.98935        -4.41574
   H       -9.22694         1.81800        -4.01213
   H      -10.06434         1.27369         0.23898
   H      -10.85019         2.85213         0.29110
   H       -7.92973         2.31345         1.02329
   H       -9.24746         2.59730         2.16182
   H       -8.72093         3.88891         1.08102
   H      -10.99785         5.04014        -1.12693
   H       -7.73346         7.59841        -2.22758
   H       -6.25252         5.66309        -2.44393
   H      -11.37279         7.32520        -1.20001
   H       -9.06264         9.18414        -1.97483
   H      -11.98702         9.69072        -1.18057
   H      -12.53969        12.26095        -1.17199
   H      -11.40675        14.53267        -1.62478
   H       -9.82179        16.32749        -2.15998
   H       -7.72463        17.65545        -2.84649
   H       -5.38775        17.41274        -3.50284
   H       -2.64963        10.80862        -4.11447
   H       -5.02541        10.06971        -3.94466
   H       -6.32178        11.27942        -3.78231
   H       -4.43673        10.42989        -1.53079
   H       -6.11926         9.92303        -1.70918
   H       -5.73908        11.61968        -1.40703
   H        0.02728        14.23271        -4.60207
   H        4.36725        17.35441        -4.53672
   H        0.66577        20.34545        -6.10812
   H        5.93717        19.67117        -4.62051
*
