# ORCA input file
# SCF done       -219.616556043945          0.000931605094
! CAM-B3LYP def2-SVP def2/J RIJCOSX Grid4 TightSCF
%maxcore 5000
%tddft
    Mode sTDDFT
    Ethresh 5.0
    maxcore 5000
end

%pal
  nprocs 6
  end
* xyz 0 1
   C       -4.39414         0.56979        -4.49219
   C       -5.13084         1.16087        -5.48526
   C       -5.02556         0.82529        -6.85309
   N       -4.99547         0.60360        -7.97878
   C       -6.08382         2.19050        -5.32985
   N       -6.86866         3.02896        -5.30480
   C       -3.39133        -0.46632        -4.70550
   C       -2.78797        -0.77759        -3.46379
   C       -1.79385        -1.71660        -3.33098
   C       -1.37579        -2.38884        -4.48320
   C       -1.98707        -2.07673        -5.72211
   C       -2.98938        -1.12442        -5.85458
   S       -1.32506        -3.02672        -7.01728
   C       -0.25045        -3.81713        -5.89410
   C       -0.37966        -3.39403        -4.61376
  Br        0.93735        -5.12699        -6.51685
   C       -3.38998         0.04409        -2.39937
   O       -3.05944         0.03786        -1.23372
   C       -4.44029         0.85828        -3.06225
   C       -5.33966         1.70905        -2.48910
   C       -5.56705         2.06543        -1.13900
   S       -6.91117         3.16425        -0.84758
   C       -6.65715         3.14730         0.85360
   C       -5.56685         2.33775         1.16137
   C       -4.96552         1.72724         0.05303
   N       -4.99894         2.20460         2.46725
   O       -5.13940         3.12663         3.24446
   O       -4.38326         1.18685         2.69849
   C       -7.57226         3.82912         1.73847
   C       -8.09099         5.07791         1.36720
   C       -8.97741         5.71349         2.20180
   C       -9.34930         5.11514         3.41979
   C       -8.86397         3.86536         3.77687
   C       -7.98029         3.22624         2.93383
   C      -10.21777         6.02299         4.13413
   C      -10.36806         7.19216         3.37123
   C       -9.65249         7.05670         2.04289
   C       -8.64311         8.18843         1.80288
   C       -7.63232         8.31387         2.93729
   C      -10.74441         7.02019         0.94652
   C      -10.26409         6.68687        -0.45974
   C      -11.11406         8.24295         3.84982
   C      -11.74845         8.13439         5.09459
   C      -11.59532         6.95709         5.83609
   C      -10.83246         5.90577         5.37165
   C      -12.53029         9.25341         5.59359
   C      -13.52782         9.14287         6.48029
   C      -14.31295        10.25949         6.99288
   C      -14.81212        10.35861         8.30434
   N      -14.68791         9.52536         9.40512
   C      -14.11745         8.20210         9.42751
   C      -12.59450         8.23078         9.54068
   C      -15.29581        10.11686        10.48687
   C      -15.88202        11.33716        10.07776
   C      -15.54383        11.50649         8.69491
   C      -15.81623        12.53846         7.80898
   C      -15.33712        12.43285         6.51988
   C      -14.60042        11.32278         6.13533
   C      -16.64342        12.09823        10.95063
   C      -16.83954        11.62606        12.23641
   C      -16.26507        10.43589        12.64938
   C      -15.45352         9.66190        11.80938
   C      -14.78296         8.50960        12.36546
   C      -15.34712         7.65407        13.25265
   C      -14.63046         6.55888        13.78407
   C      -15.05519         5.60914        14.66653
   C      -16.24034         5.49744        15.48640
   C      -16.98118         6.52333        16.01574
   C      -18.09935         6.33234        16.85345
   N      -19.02345         6.23636        17.52797
   C      -16.66709         7.89075        15.88242
   N      -16.45003         9.01811        15.84893
   C      -16.38921         4.08727        15.83964
   C      -15.21836         3.39238        15.44473
   C      -14.30661         4.33018        14.75921
   O      -13.20488         4.09984        14.31216
   C      -15.04537         2.04871        15.67014
   C      -16.08128         1.35445        16.30411
   C      -17.25165         2.05415        16.68226
   C      -17.42326         3.41576        16.46307
   S      -18.41051         1.00090        17.43534
   C      -17.32085        -0.34602        17.23694
   C      -16.14943        -0.02611        16.63809
  Br      -17.83440        -2.04755        17.83653
   H       -1.35568        -1.92477        -2.36754
   H       -3.42090        -0.92734        -6.82122
   H        0.20232        -3.77409        -3.79414
   H       -6.03479         2.19337        -3.16432
   H       -4.11041         1.07866         0.13174
   H       -7.74934         5.53352         0.44985
   H       -9.16665         3.39908         4.70151
   H       -7.61767         2.24265         3.18994
   H       -9.18857         9.12835         1.69499
   H       -8.11011         8.00148         0.86995
   H       -8.13372         8.52913         3.87828
   H       -6.93288         9.11987         2.72786
   H       -7.06844         7.39102         3.05450
   H      -11.23293         7.99706         0.93529
   H      -11.49355         6.28162         1.24464
   H       -9.50198         7.38449        -0.79614
   H      -11.10336         6.74925        -1.14900
   H       -9.86600         5.67693        -0.50711
   H      -11.22697         9.15161         3.27562
   H      -12.05782         6.87776         6.80771
   H      -10.71197         5.01212         5.96531
   H      -12.25998        10.22540         5.20187
   H      -13.79547         8.15441         6.81662
   H      -14.42652         7.66246         8.53015
   H      -14.55175         7.67050        10.27891
   H      -12.15770         8.71819         8.67186
   H      -12.20471         7.21828         9.61019
   H      -12.28741         8.78430        10.42532
   H      -16.38362        13.39812         8.12934
   H      -15.53232        13.21447         5.80146
   H      -14.25452        11.25839         5.11491
   H      -17.07780        13.03138        10.62714
   H      -17.43222        12.19431        12.93637
   H      -16.38791        10.11861        13.67424
   H      -13.74097         8.36394        12.11005
   H      -16.39026         7.76926        13.50514
   H      -13.64035         6.37988        13.37485
   H      -14.14046         1.54717        15.36483
   H      -18.33578         3.90373        16.76301
   H      -15.36496        -0.73286        16.43783
*
