# ORCA input file
# SCF done       -189.288702978006          0.000598677916
! CAM-B3LYP def2-SVP def2/J RIJCOSX Grid4 TightSCF
%maxcore 5000
%tddft
    Mode sTDDFT
    Ethresh 5.0
    maxcore 5000
end

%pal
  nprocs 6
  end
* xyz 0 1
   C       -5.21061        10.63373        -3.94193
   C       -5.46574        11.70395        -3.11513
   C       -4.49364        12.63034        -2.69489
   N       -3.74363        13.41744        -2.32415
   C       -6.71993        11.93540        -2.52185
   N       -7.71572        12.11068        -1.97416
   C       -3.89978        10.19272        -4.39090
   C       -4.03962         8.92644        -5.00876
   C       -2.97093         8.24140        -5.53015
   C       -1.70338         8.82372        -5.41916
   C       -1.57072        10.07097        -4.76608
   C       -2.65367        10.77658        -4.25957
   S        0.08976        10.57754        -4.69122
   C        0.57298         9.14349        -5.55227
   C       -0.45474         8.32591        -5.87916
  Br        2.37724         8.86442        -5.96847
   C       -5.46121         8.52267        -4.98966
   O       -5.93768         7.52152        -5.48724
   C       -6.17782         9.64943        -4.36301
   C       -7.54108         9.81304        -4.33108
   N       -8.46985         8.84714        -4.42569
   C       -8.27149         7.49368        -4.14380
   C       -8.84643         6.46752        -4.83094
   S       -8.39073         4.94247        -4.20224
   C       -7.45828         5.67839        -2.96350
   C       -7.47744         7.03822        -3.03635
   N       -6.88012         7.90171        -2.11844
   C       -5.51607         7.99721        -1.92145
   C       -4.59441         7.13771        -2.37482
   C       -3.16132         7.28550        -2.23035
   C       -2.34537         6.16952        -2.47161
   C       -0.97871         6.29317        -2.42495
   C       -0.39146         7.55590        -2.22267
   C       -1.18430         8.65621        -1.93461
   C       -2.55642         8.50701        -1.91570
   C        1.03670         7.43576        -2.40892
   C        1.33885         6.08854        -2.67807
   C        0.09368         5.23492        -2.55079
   C        0.23407         4.47691        -1.20502
   C       -0.99426         3.69188        -0.76435
   C       -0.10597         4.25606        -3.71113
   C       -0.16869         4.96211        -5.05792
   C        2.62354         5.69598        -2.94748
   C        3.65451         6.65278        -2.97607
   C        3.33372         7.99272        -2.70300
   C        2.04489         8.39003        -2.41467
   C        5.01660         6.30998        -3.27393
   C        5.50764         5.05457        -3.43577
   C        6.85325         4.75671        -3.72232
   C        7.33736         3.48038        -3.84025
   C        8.66816         3.07989        -4.11796
   C        8.85570         1.73227        -4.15605
   C        7.68514         0.97983        -3.90868
   S        6.32581         2.05321        -3.63863
   C        7.54465        -0.39007        -3.85487
   C        8.54329        -1.37935        -4.01777
   C        8.08750        -2.65123        -3.88060
   C        6.69780        -2.76000        -3.59131
   S        5.99696        -1.14361        -3.53045
   C        6.01089        -3.93323        -3.47759
   C        4.63998        -4.16278        -3.16789
   C        3.75255        -3.47506        -2.33615
   C        4.09001        -2.36050        -1.41471
   C        2.45595        -4.09129        -2.37055
   C        2.55905        -5.18956        -3.20269
   C        3.92377        -5.28175        -3.70806
   C        4.24153        -6.30541        -4.55319
   C        3.22566        -7.23503        -4.87723
   C        1.97360        -7.07529        -4.36524
   O        1.62214        -6.08580        -3.55326
   C        1.28936        -3.61838        -1.66353
   C        0.10532        -4.22425        -1.63746
   H       -3.10533         7.28126        -6.00320
   H       -2.50914        11.73439        -3.78754
   H       -0.33608         7.41329        -6.43215
   H       -7.94755        10.81455        -4.24066
   H       -9.40150         9.11380        -4.71253
   H       -9.47202         6.52688        -5.69839
   H       -6.95733         5.07107        -2.23776
   H       -7.39282         8.75747        -1.95477
   H       -5.24066         8.85171        -1.31959
   H       -4.91814         6.26983        -2.93177
   H       -2.81151         5.22106        -2.69724
   H       -0.73912         9.61964        -1.73229
   H       -3.17074         9.36603        -1.69147
   H        0.47563         5.21108        -0.43185
   H        1.08515         3.79746        -1.29216
   H       -1.84945         4.35152        -0.64142
   H       -0.79297         3.21430         0.19238
   H       -1.24767         2.91461        -1.48055
   H       -1.03299         3.70183        -3.55887
   H        0.71671         3.53789        -3.71185
   H       -1.01254         5.64834        -5.07371
   H       -0.29129         4.23841        -5.86115
   H        0.74714         5.52306        -5.23377
   H        2.84197         4.66045        -3.15633
   H        4.12481         8.72878        -2.72418
   H        1.82391         9.42741        -2.20735
   H        5.70432         7.14244        -3.36036
   H        4.85356         4.19897        -3.33207
   H        7.55034         5.57381        -3.85365
   H        9.44527         3.80694        -4.27765
   H        9.80134         1.25828        -4.35152
   H        9.56582        -1.12117        -4.22866
   H        8.70394        -3.52930        -3.96776
   H        6.58029        -4.82360        -3.72177
   H        5.15744        -2.34219        -1.21341
   H        3.55872        -2.47890        -0.47214
   H        3.80798        -1.39871        -1.84446
   H        5.23036        -6.42309        -4.96895
   H        3.43158        -8.06602        -5.52975
   H        1.15358        -7.74536        -4.57801
   H        1.41804        -2.68568        -1.13129
   H       -0.07596        -5.15208        -2.15072
   H       -0.72474        -3.80598        -1.09433
*
