# ORCA input file
# SCF done       -210.708800620984          0.000982107628
! CAM-B3LYP def2-SVP def2/J RIJCOSX Grid4 TightSCF
%maxcore 5000
%tddft
    Mode sTDDFT
    Ethresh 5.0
    maxcore 5000
end

%pal
  nprocs 6
  end
* xyz 0 1
   C       -0.08968         0.92994         3.98308
   C       -0.70246         0.08977         4.87598
   C       -0.02827        -0.90579         5.61359
   N        0.46697        -1.72806         6.24336
   C       -2.08356         0.07050         5.16545
   N       -3.19370        -0.02374         5.44500
   C        1.31875         0.88728         3.61304
   C        1.54057         1.81829         2.57055
   C        2.77300         2.00860         1.99447
   C        3.83979         1.23834         2.46781
   C        3.61084         0.31329         3.51443
   C        2.36515         0.12415         4.09904
   S        5.06611        -0.53142         3.94973
   C        5.94795         0.35387         2.73343
   C        5.19500         1.23850         2.03775
  Br        7.77935         0.02604         2.49624
   C        0.27623         2.50625         2.23711
   O        0.14636         3.38385         1.41245
   C       -0.73532         1.95436         3.17657
   C       -1.98174         2.45392         3.40388
   C       -2.73111         3.38742         2.61344
   C       -3.64771         4.22622         3.27729
   C       -4.36579         5.14552         2.55904
   C       -4.22348         5.22614         1.15950
   C       -3.36925         4.36042         0.48834
   C       -2.62843         3.45349         1.21545
   C       -5.08406         6.27678         0.67069
   C       -5.76396         6.84638         1.76391
   C       -5.36428         6.16596         3.05237
   C       -6.57197         5.48971         3.72858
   C       -7.27826         4.49191         2.81869
   C       -4.71202         7.15842         4.03320
   C       -3.50627         7.87466         3.43641
   C       -6.64509         7.88162         1.58180
   C       -6.86447         8.38680         0.28835
   C       -6.17567         7.80588        -0.79067
   C       -5.29642         6.75969        -0.61471
   C       -7.74718         9.48976         0.01746
   C       -8.53662        10.11583         0.92002
   C       -9.37334        11.23735         0.64743
   C      -10.16211        11.78560         1.68680
   C      -10.98379        12.96224         1.51226
   N      -11.83409        13.32069         2.48036
   C      -11.84400        12.66017         3.61651
   C      -10.92367        11.58933         3.84330
   N      -10.13502        11.17391         2.88261
   C      -10.86114        10.95753         5.10918
   N      -10.83160        10.46925         6.14564
   C      -12.76583        13.04778         4.61648
   N      -13.49174        13.37486         5.44184
   C      -10.97281        13.70484         0.30557
   C      -10.28176        13.08536        -0.76393
   C       -9.49218        11.88621        -0.60272
   N       -8.92101        11.52360        -1.75218
   S       -9.33114        12.56506        -2.90683
   N      -10.24661        13.53843        -2.01471
   C      -11.61980        14.95694         0.10686
   S      -12.12313        15.37426        -1.50288
   C      -12.73121        16.92453        -0.98232
   C      -12.51131        17.09980         0.39046
   C      -11.88601        16.00677         0.99338
   C      -11.45621        16.05311         2.42650
   C      -11.34824        17.49310         2.91628
   C      -12.67782        18.20318         2.64670
   C      -12.68546        19.55120         3.31718
   O      -12.79079        20.60770         2.76242
   C      -12.89876        18.33357         1.14115
   C      -13.28734        17.75101        -1.97352
   C      -13.69534        19.05650        -1.87373
   C      -14.20588        19.77249        -2.95987
   C      -14.55962        21.10275        -2.90575
   C      -15.06471        21.89309        -3.96505
   C      -15.30607        23.19079        -3.63031
   C      -15.00500        23.49927        -2.28303
   S      -14.41035        22.07631        -1.45395
   C      -15.12513        24.71556        -1.64518
   C      -15.57917        25.94134        -2.20664
   C      -15.58354        26.98046        -1.34180
   C      -15.13012        26.65148        -0.02113
   S      -14.70279        24.93387         0.03713
   C      -15.02435        27.46628         1.03807
   H        2.90767         2.72679         1.20085
   H        2.24396        -0.58826         4.89771
   H        5.57705         1.86593         1.25329
   H       -2.47473         2.15047         4.32078
   H       -3.74912         4.15466         4.35081
   H       -3.28372         4.39545        -0.58695
   H       -1.98339         2.76171         0.70040
   H       -7.27845         6.26369         4.03489
   H       -6.22707         4.97747         4.62897
   H       -7.64493         4.98280         1.91971
   H       -8.12473         4.04938         3.33813
   H       -6.60154         3.69325         2.52257
   H       -4.40440         6.61353         4.92810
   H       -5.45965         7.89547         4.33290
   H       -2.74009         7.16117         3.14053
   H       -3.07738         8.55572         4.16781
   H       -3.79555         8.44983         2.55951
   H       -7.15770         8.31433         2.42652
   H       -6.34845         8.19811        -1.78259
   H       -4.77808         6.32823        -1.45786
   H       -7.76710         9.83907        -1.00556
   H       -8.57119         9.78820         1.94901
   H      -10.49612        15.54470         2.53918
   H      -12.18558        15.52200         3.04223
   H      -10.54723        18.01384         2.38724
   H      -11.11823        17.50123         3.98301
   H      -13.47724        17.60804         3.10363
   H      -12.56652        19.48936         4.41737
   H      -12.30367        19.18019         0.78223
   H      -13.94856        18.56695         0.94714
   H      -13.36747        17.28580        -2.94943
   H      -13.60770        19.59561        -0.94424
   H      -14.32376        19.26615        -3.90916
   H      -15.23102        21.47672        -4.94306
   H      -15.68827        23.92944        -4.31164
   H      -15.88544        26.00766        -3.23548
   H      -15.89153        27.98215        -1.58341
   H      -15.29496        28.50464         0.96193
   H      -14.67075        27.11285         1.98923
*
