# ORCA input file
# SCF done       -194.518881751145          0.000553221996
! CAM-B3LYP def2-SVP def2/J RIJCOSX Grid4 TightSCF
%maxcore 5000
%tddft
    Mode sTDDFT
    Ethresh 5.0
    maxcore 5000
end

%pal
  nprocs 6
  end
* xyz 0 1
   C       -2.58470        10.59946         3.23469
   C       -3.42441        11.49250         3.85337
   C       -3.11725        12.16385         5.05473
   N       -2.93162        12.74443         6.02793
   C       -4.70639        11.86910         3.40407
   N       -5.75865        12.22915         3.11449
   C       -1.26664        10.20919         3.72898
   C       -0.71780         9.24680         2.84678
   C        0.52076         8.68470         3.03334
   C        1.25922         9.09361         4.14901
   C        0.70412        10.05339         5.02743
   C       -0.55064        10.62055         4.83744
   S        1.78374        10.41746         6.33974
   C        2.95017         9.29177         5.69735
   C        2.55373         8.67304         4.56010
  Br        4.58144         9.03972         6.58826
   C       -1.67700         8.99115         1.75745
   O       -1.52379         8.20581         0.83808
   C       -2.82493         9.86624         2.00837
   C       -3.92506         9.99363         1.19515
   C       -4.25138         9.34270        -0.00134
   S       -3.31437         8.08370        -0.80403
   C       -4.49787         7.98501        -2.04805
   C       -5.55731         8.89307        -1.85238
   C       -5.42140         9.64695        -0.70536
   S       -6.75955         8.82314        -3.11779
   C       -5.83746         7.57498        -3.91023
   C       -6.02347         6.84340        -5.08477
   C       -5.00880         5.93706        -5.29982
   S       -3.80144         5.99210        -4.02850
   C       -4.66933         7.24063        -3.21645
   C       -4.85513         5.01239        -6.39575
   C       -5.60744         5.16763        -7.57147
   C       -5.44426         4.27516        -8.60225
   C       -4.50479         3.23174        -8.49925
   C       -3.75781         3.06936        -7.34029
   C       -3.94226         3.95483        -6.30032
   C       -4.46781         2.51557        -9.75181
   C       -5.37288         3.12163       -10.64078
   C       -6.12840         4.23885        -9.95054
   C       -7.60018         3.77684        -9.82922
   C       -8.50387         4.65640        -8.97534
   C       -6.01248         5.57250       -10.70175
   C       -4.56250         5.98158       -10.93422
   C       -5.49611         2.66449       -11.92750
   C       -4.72016         1.57417       -12.36522
   C       -3.83426         0.97172       -11.45512
   C       -3.70079         1.43310       -10.16433
   C       -4.85381         1.13407       -13.72385
   C       -4.29991         0.01936       -14.27153
   C       -4.44363        -0.34716       -15.62084
   C       -3.92290        -1.49649       -16.16160
   C       -3.99379        -1.92458       -17.50899
   C       -3.38726        -3.12067       -17.75231
   C       -2.80919        -3.71361       -16.60995
   S       -3.04752        -2.68822       -15.21054
   C       -2.15135        -4.92547       -16.51531
   C       -1.86711        -5.84899       -17.54467
   C       -1.21167        -6.96371       -17.11864
   C       -0.94052        -6.99875       -15.72662
   S       -1.55251        -5.52502       -14.98631
   C       -0.30995        -8.02578       -15.07322
   C       -0.01676        -8.16758       -13.70038
   C        0.62844        -9.27555       -13.14380
   C        0.74638        -9.08416       -11.74461
   C        1.29016        -9.86479       -10.74988
   C        1.24240        -9.37465        -9.43335
   C        1.69188        -9.90867        -8.23571
   C        1.39245        -8.99469        -7.17448
   C        0.75737        -7.89644        -7.72207
   C        0.63922        -8.08706        -9.13481
   C        0.09710        -7.30739       -10.11911
   C        0.14329        -7.79725       -11.44319
   C       -0.31150        -7.25517       -12.62762
   C        1.69098        -9.16735        -5.77345
   C        2.29369       -10.22304        -5.23305
   H        0.90831         7.95438         2.34049
   H       -0.92537        11.34927         5.53627
   H        3.14806         7.95076         4.03087
   H       -4.67390        10.71472         1.49979
   H       -6.12200        10.39070        -0.37106
   H       -6.87324         6.96338        -5.73021
   H       -6.27862         6.00601        -7.66630
   H       -3.03808         2.26939        -7.25619
   H       -3.37032         3.84130        -5.39050
   H       -7.60015         2.76669        -9.41105
   H       -8.01175         3.71427       -10.83911
   H       -8.17518         4.65797        -7.93952
   H       -9.51898         4.26604        -9.00597
   H       -8.52620         5.67902        -9.34287
   H       -6.51501         6.35330       -10.12933
   H       -6.52297         5.48033       -11.66276
   H       -4.03926         6.09160        -9.98678
   H       -4.52010         6.93078       -11.46362
   H       -4.04217         5.23244       -11.52680
   H       -6.18359         3.13161       -12.61875
   H       -3.22972         0.13875       -11.77797
   H       -3.00555         0.96252        -9.48502
   H       -5.46867         1.75838       -14.36156
   H       -3.71286        -0.65199       -13.65910
   H       -4.99140         0.31185       -16.28183
   H       -4.49049        -1.33182       -18.25704
   H       -3.34681        -3.59261       -18.71789
   H       -2.15040        -5.66626       -18.56576
   H       -0.91368        -7.77342       -17.76183
   H        0.00198        -8.85238       -15.70153
   H        0.97788       -10.13483       -13.68634
   H        1.74034       -10.82400       -10.96396
   H        2.18634       -10.85546        -8.11811
   H        0.40485        -7.03454        -7.18529
   H       -0.35463        -6.34830        -9.90794
   H       -0.80641        -6.30810       -12.73308
   H        1.38226        -8.34564        -5.13874
   H        2.61840       -11.06374        -5.82177
   H        2.48431       -10.28217        -4.17548
*
