# ORCA input file
# SCF done       -211.176354843093          0.008165748131
! CAM-B3LYP def2-SVP def2/J RIJCOSX Grid4 TightSCF
%maxcore 5000
%tddft
    Mode sTDDFT
    Ethresh 5.0
    maxcore 5000
end

%pal
  nprocs 6
  end
* xyz 0 1
   C       -6.54995        -2.38227        -0.94132
   C       -7.41502        -3.35520        -1.36662
   C       -7.13658        -4.73590        -1.31264
   N       -6.95758        -5.86976        -1.28324
   C       -8.65557        -3.08541        -1.98393
   N       -9.64462        -2.93019        -2.54548
   C       -5.18039        -2.58416        -0.48775
   C       -4.56031        -1.31799        -0.34616
   C       -3.25246        -1.17639         0.05096
   C       -2.52017        -2.33886         0.31409
   C       -3.14934        -3.59906         0.17392
   C       -4.47385        -3.74272        -0.22342
   S       -2.06379        -4.90005         0.55505
   C       -0.79591        -3.75108         0.88956
   C       -1.16515        -2.45845         0.72592
  Br        0.89254        -4.36499         1.42022
   C       -5.52980        -0.25085        -0.66226
   O       -5.35087         0.94146        -0.53766
   C       -6.79096        -0.95665        -1.01279
   C       -7.99789        -0.33813        -1.14997
   C       -8.16118         1.04069        -1.46168
   C       -9.23862         1.78831        -0.92877
   C       -9.43576         3.17141        -1.25240
   N      -10.42427         3.85772        -0.67588
   C      -11.21604         3.24159         0.17820
   C      -11.03786         1.85681         0.47435
   N      -10.05789         1.17350        -0.06194
   C      -11.92737         1.21580         1.37514
   N      -12.67158         0.74852         2.10978
   C      -12.25914         3.98522         0.77937
   N      -13.11741         4.57353         1.25962
   C       -8.59275         3.86881        -2.18318
   C       -7.50566         3.11253        -2.68606
   C       -7.31219         1.72311        -2.35402
   N       -6.27773         1.19929        -3.01487
   S       -5.56311         2.33621        -3.87908
   N       -6.56490         3.54538        -3.51930
   C       -8.93341         5.18108        -2.53002
   C       -8.36800         6.06794        -3.42666
   C       -8.95126         7.32322        -3.74061
   C       -8.29543         8.03519        -4.70221
   C       -7.14493         7.37628        -5.17757
   S       -6.91663         5.84431        -4.36324
   C       -6.30896         7.69556        -6.23571
   C       -6.45930         8.66184        -7.25315
   C       -5.63868         8.45402        -8.32225
   C       -4.82167         7.29705        -8.20686
   S       -4.96458         6.63789        -6.60161
   C       -4.03893         6.75947        -9.20225
   C       -3.42800         5.48857        -9.27768
   C       -3.81513         4.27261        -8.72167
   C       -3.01287         3.02681        -8.84151
   C       -1.80156         2.94534        -9.56151
   C       -1.31235         3.98208       -10.26911
   S       -2.02892         5.54469       -10.34514
   N       -3.57159         1.99369        -8.24883
   C       -4.75643         2.43275        -7.75238
   C       -4.94710         3.82368        -8.02256
   S       -6.47085         4.35351        -7.44250
   C       -6.80792         2.76840        -6.76647
   C       -5.80242         1.85092        -7.04485
   C       -7.99279         2.67689        -6.00858
   C       -8.57865         1.56067        -5.49002
   C       -9.74802         1.58000        -4.69779
   C      -10.66854         2.56792        -4.47133
   C      -10.94894         3.85149        -5.07744
   C      -10.74546         4.22463        -6.38379
   C      -11.05492         5.49746        -6.89794
   N      -11.25619         6.53145        -7.35857
   C      -10.27533         3.34968        -7.38335
   N       -9.93671         2.66047        -8.23641
   C      -11.77680         4.60775        -4.14256
   C      -12.25362         3.71946        -3.14802
   C      -11.58565         2.41627        -3.30976
   O      -11.68583         1.45072        -2.58498
   C      -13.17141         4.09950        -2.19914
   C      -13.58634         5.43672        -2.18887
   C      -13.05953         6.32779        -3.15144
   C      -12.17135         5.93161        -4.14428
   S      -13.69580         7.93514        -2.94335
   C      -14.65356         7.38745        -1.59251
   C      -14.50125         6.07217        -1.30522
  Br      -15.76364         8.60089        -0.70059
   H       -2.80662        -0.19942         0.15085
   H       -4.91340        -4.72251        -0.30839
   H       -0.51133        -1.62222         0.88832
   H       -8.91552        -0.88845        -0.98173
   H       -9.82384         5.54325        -2.02744
   H       -9.85394         7.65085        -3.25575
   H       -8.61267         8.99373        -5.07199
   H       -7.19833         9.44068        -7.19651
   H       -5.64698         9.04756        -9.21896
   H       -3.82891         7.41701       -10.03901
   H       -1.29295         1.99346        -9.56447
   H       -0.41075         3.91788       -10.85599
   H       -5.82492         0.82593        -6.72537
   H       -8.43633         3.63634        -5.78239
   H       -8.11432         0.59695        -5.64371
   H       -9.93553         0.67950        -4.11633
   H      -13.57312         3.38642        -1.49253
   H      -11.81082         6.64298        -4.86901
   H      -14.99850         5.56843        -0.49702
*
