# ORCA input file
# SCF done       -122.124153274081          0.000256197083
! CAM-B3LYP def2-SVP def2/J RIJCOSX Grid4 TightSCF
%maxcore 5000
%tddft
    Mode sTDDFT
    Ethresh 5.0
    maxcore 5000
end

%pal
  nprocs 6
  end
* xyz 0 1
   C        5.53068        -9.51978        -2.85666
   C        5.18992       -10.26469        -1.79728
   C        4.19998       -11.30253        -1.73424
   C        4.07644       -11.88638        -0.52294
   C        4.95248       -11.36728         0.47233
   S        5.94678       -10.08955        -0.20517
   C        5.05804       -11.76435         1.78069
   C        4.31714       -12.76540         2.45882
   C        4.66339       -12.92058         3.76037
   C        5.70597       -12.06078         4.21508
   S        6.20927       -11.02690         2.88268
   C        6.24294       -12.13132         5.46861
   C        7.29294       -11.43101         6.11047
   O        7.79221       -12.06595         7.21113
   C        8.79857       -11.32485         7.69318
   C        8.97549       -10.20117         6.95464
   C        7.99372       -10.23214         5.92170
   C        7.72227        -9.19527         4.97847
   C        8.51308        -8.12632         4.77526
   N        8.17636        -7.13470         3.88775
   C        8.87102        -6.00353         3.61482
   S        7.98949        -4.62269         3.02392
   C        9.45273        -3.68588         3.05359
   N        9.39439        -2.36698         2.61971
   O       10.42375        -1.70987         2.65186
   O        8.30741        -1.95539         2.23761
   C       10.53719        -4.40388         3.48927
   C       10.23411        -5.73976         3.79918
   C       11.23736        -6.72848         4.13432
   C       12.39611        -6.44413         4.75147
   C       13.42231        -7.42313         4.97353
   C       14.56652        -7.23835         5.64777
   C       14.95130        -5.98223         6.36490
   C       15.59647        -8.33974         5.72257
   N       15.56283        -9.19580         4.56372
   C       16.02068       -10.48007         4.59227
   C       16.38848       -11.18266         3.50467
   C       16.79289       -12.55300         3.54966
   O       16.77318       -13.21859         4.73109
   C       17.21051       -14.47352         4.49172
   C       17.51592       -14.64025         3.18279
   C       17.25055       -13.39349         2.54268
   C       17.42214       -13.05988         1.15153
   C       17.88301       -13.88456         0.21547
   H        5.04506        -9.66240        -3.80580
   H        6.29116        -8.76314        -2.79646
   H        3.62535       -11.56328        -2.60526
   H        3.38594       -12.68026        -0.29927
   H        3.55557       -13.33941         1.96234
   H        4.21045       -13.63417         4.42620
   H        5.85143       -12.93274         6.08559
   H        9.30618       -11.69705         8.56148
   H        9.69771        -9.43129         7.13008
   H        6.80511        -9.27632         4.41753
   H        9.43723        -7.97679         5.30846
   H        7.24517        -7.19726         3.49405
   H       11.52205        -3.97632         3.53395
   H       11.03716        -7.74310         3.81509
   H       12.57786        -5.43514         5.09073
   H       13.24782        -8.39451         4.52769
   H       14.08914        -5.36637         6.59873
   H       15.63831        -5.39559         5.75336
   H       15.46344        -6.22675         7.29421
   H       15.40502        -8.96014         6.60616
   H       16.59137        -7.88364         5.85488
   H       15.66066        -8.71631         3.67963
   H       16.02592       -10.94569         5.56753
   H       16.38914       -10.71505         2.53159
   H       17.25517       -15.13912         5.33103
   H       17.88357       -15.53406         2.72298
   H       17.14685       -12.04928         0.87886
   H       18.17156       -14.89757         0.43612
   H       17.98842       -13.57096        -0.80876
*
