# ORCA input file
# SCF done       -191.345225094903          0.000683897328
! CAM-B3LYP def2-SVP def2/J RIJCOSX Grid4 TightSCF
%maxcore 5000
%tddft
    Mode sTDDFT
    Ethresh 5.0
    maxcore 5000
end

%pal
  nprocs 6
  end
* xyz 0 1
   C        3.43702         4.93810        -6.81618
   C        2.44115         5.87367        -6.86472
   F        2.42752         6.77360        -7.86445
   C        1.42191         5.93739        -5.90494
   C        1.42150         5.03199        -4.88039
   C        2.42517         4.04694        -4.78062
   C        3.45203         3.99683        -5.76848
   C        4.46471         3.01218        -5.69427
   C        4.45428         2.11364        -4.66129
   C        3.43204         2.17765        -3.66964
   C        2.43718         3.11076        -3.72236
   C        3.66488         1.12887        -2.65906
   O        2.98419         0.85334        -1.69996
   C        4.97377         0.51236        -3.03508
   C        5.32762         0.98768        -4.35321
   C        6.18508         0.37483        -5.22929
   C        6.76822        -0.88576        -4.99111
   N        7.24416        -1.92097        -4.85122
   C        6.57872         0.92630        -6.46202
   N        6.99976         1.36110        -7.43845
   C        5.64136        -0.21722        -2.10704
   C        7.01943        -0.60325        -2.04926
   C        7.41498        -1.65698        -1.22982
   F        6.48238        -2.33893        -0.54855
   C        8.74476        -2.07927        -1.08934
   F        8.97052        -3.15232        -0.30504
   C        9.80604        -1.47438        -1.73779
   C        9.43958        -0.40628        -2.57926
   C        8.09071         0.03865        -2.71664
   N        8.10996         1.09828        -3.53697
   N        9.36742         1.23828        -3.86285
   N       10.20534         0.39542        -3.33557
   C        9.78911         2.25304        -4.77806
   C       11.19028        -1.89813        -1.60339
   C       11.82135        -2.11859        -0.44916
   C       11.23764        -1.86439         0.90380
   C       13.25135        -2.61297        -0.41817
   N       13.65655        -3.36837        -1.57628
   C       13.19638        -4.60587        -1.85227
   C       12.17061        -5.23068        -1.20875
   C       11.82264        -6.56543        -1.47699
   C       10.75270        -7.22912        -0.92887
   C        9.69645        -6.73440        -0.12777
   C        8.78536        -7.68050         0.23496
   C        9.08410        -8.97983        -0.23429
   S       10.53539        -8.95896        -1.19210
   C        8.38033       -10.15053         0.00981
   C        7.17511       -10.30310         0.72419
   C        6.75339       -11.59877         0.79348
   C        7.62059       -12.52945         0.17229
   S        8.97312       -11.70418        -0.52491
   C        7.33577       -13.88633         0.04990
   C        8.07421       -14.92218        -0.49933
   C        9.44601       -15.03117        -0.71295
   C       10.08104       -16.05361        -1.50142
   C        9.46845       -16.92943        -2.36907
   C       10.15203       -17.90648        -3.11657
   N       10.65269       -18.72640        -3.74746
   C        8.08998       -16.95775        -2.65655
   N        6.98612       -17.03834        -2.96722
   C       11.52531       -15.95500        -1.28902
   C       11.77034       -14.87735        -0.40574
   C       10.47795       -14.27896        -0.00673
   O       10.32897       -13.38135         0.80988
   C       13.03216       -14.51731        -0.00752
   C       14.10983       -15.25850        -0.50814
   C       13.85544       -16.33450        -1.38632
   C       12.57477       -16.69892        -1.78954
   S       15.32770       -17.12039        -1.87811
   C       16.24985       -16.00229        -0.90987
   C       15.49880       -15.08914        -0.25171
  Br       18.12111       -16.14472        -0.85754
   H        4.20336         4.91736        -7.57525
   H        0.66199         6.69718        -5.99536
   H        0.64691         5.06064        -4.12893
   H        5.23120         2.99802        -6.45307
   H        1.66771         3.13544        -2.96536
   H        5.04810        -0.50389        -1.24311
   H        9.51719         3.23571        -4.39205
   H        9.29672         2.10814        -5.74133
   H       10.86737         2.17614        -4.89275
   H       11.72048        -2.00165        -2.54016
   H       10.38549        -1.19258         0.84890
   H       11.99050        -1.42390         1.55558
   H       10.90606        -2.79651         1.36135
   H       13.37293        -3.24132         0.47369
   H       13.92394        -1.75644        -0.31457
   H       14.36122        -2.97511        -2.17581
   H       13.71080        -5.11463        -2.65661
   H       11.60107        -4.69708        -0.46613
   H       12.46338        -7.12416        -2.14645
   H        9.61559        -5.69498         0.13377
   H        7.91515        -7.48078         0.83337
   H        6.65096        -9.47041         1.15730
   H        5.85223       -11.91753         1.28717
   H        6.33410       -14.15063         0.37089
   H        7.49157       -15.79994        -0.75473
   H       13.18690       -13.69006         0.66732
   H       12.43378       -17.53099        -2.45885
   H       15.90393       -14.32798         0.39000
*
