# ORCA input file
# SCF done       -170.707912989783          0.000695066293
! CAM-B3LYP def2-SVP def2/J RIJCOSX Grid4 TightSCF
%maxcore 5000
%tddft
    Mode sTDDFT
    Ethresh 5.0
    maxcore 5000
end

%pal
  nprocs 6
  end
* xyz 0 1
   C      -14.34217       -10.20983        -7.29311
   C      -13.41038       -10.50720        -6.32423
   C      -12.49784       -11.57661        -6.40591
   N      -11.72670       -12.42864        -6.40674
   C      -13.23786        -9.82110        -5.10550
   N      -13.03657        -9.34321        -4.07970
   C      -14.55213       -10.98037        -8.51802
   C      -15.63430       -10.41096        -9.23149
   C      -16.08222       -10.91650       -10.42636
   C      -15.42859       -12.03962       -10.94635
   C      -14.34754       -12.59966       -10.22836
   C      -13.89545       -12.08833        -9.01722
   S      -13.68113       -13.97943       -11.04954
   C      -14.85067       -13.78691       -12.32842
   C      -15.69603       -12.74458       -12.15246
  Br      -14.84325       -14.98095       -13.77588
   C      -16.14557        -9.23988        -8.48609
   O      -17.07478        -8.52877        -8.81685
   C      -15.29277        -9.12894        -7.28764
   C      -15.38029        -8.11599        -6.35204
   C      -16.30635        -7.07922        -6.37312
   C      -16.31338        -6.06999        -5.42569
   C      -17.19974        -4.97198        -5.35766
   C      -16.95454        -4.12297        -4.31516
   C      -15.86162        -4.51412        -3.51656
   S      -15.15764        -5.99353        -4.11597
   C      -15.32239        -3.88647        -2.40102
   C      -15.71964        -2.68403        -1.77431
   C      -14.94505        -2.35739        -0.70147
   C      -13.89176        -3.27353        -0.44637
   S      -13.93622        -4.56901        -1.60573
   C      -13.02580        -3.22688         0.63006
   C      -11.94725        -4.07936         0.86671
   C      -11.19119        -4.87255         0.01314
   C      -10.26733        -5.73836         0.65431
   C      -10.20995        -5.63905         2.08103
   O       -9.55388        -6.22695         2.90051
   S      -11.39173        -4.32715         2.53260
   C       -9.61512        -6.45959        -0.34594
   O      -10.03353        -6.02099        -1.56454
   C      -10.97342        -5.01718        -1.41136
   O      -11.42282        -4.42145        -2.35778
   C       -8.71329        -7.52394        -0.29753
   C       -8.15774        -8.14232         0.82751
   C       -7.37295        -9.21799         0.47828
   C       -7.32252        -9.43386        -0.91523
   S       -8.23410        -8.29302        -1.80338
   C       -6.53823       -10.57049        -1.17008
   C       -6.07410       -11.09584         0.04459
   C       -6.56313       -10.26100         1.19048
   C       -5.31411       -12.24199        -0.11793
   C       -5.18795       -12.60931        -1.45377
   S       -6.02881       -11.50014        -2.51916
   C       -4.52829       -13.72283        -2.03277
   C       -3.79330       -14.63313        -1.34616
   C       -3.17357       -15.78132        -1.90625
   S       -1.83945       -16.50421        -1.04760
   C       -1.62529       -17.65942        -2.29510
   C       -2.51411       -17.52487        -3.31816
   C       -2.53878       -18.45403        -4.48619
   C       -3.42422       -16.44711        -3.10304
   C       -4.56778       -16.14401        -3.93334
   C       -4.61888       -16.20890        -5.27310
   C       -5.81177       -15.91993        -6.02598
   C       -5.87033       -15.96184        -7.35534
   H      -16.91074       -10.46079       -10.94555
   H      -13.06609       -12.55199        -8.51016
   H      -16.47657       -12.48134       -12.84278
   H      -14.66523        -8.11124        -5.53819
   H      -17.04651        -7.04923        -7.15962
   H      -17.98556        -4.84039        -6.08006
   H      -17.52444        -3.23491        -4.10861
   H      -16.55206        -2.10096        -2.12451
   H      -15.08584        -1.48253        -0.09160
   H      -13.25091        -2.50722         1.40685
   H       -8.35265        -7.79117         1.82505
   H       -5.73969        -9.81970         1.75557
   H       -7.17047       -10.84006         1.88867
   H       -4.87343       -12.80167         0.68624
   H       -4.61945       -13.81442        -3.10554
   H       -3.61097       -14.47706        -0.29133
   H       -0.84741       -18.39193        -2.20170
   H       -2.04113       -19.38713        -4.23257
   H       -2.01854       -18.01504        -5.33723
   H       -3.56429       -18.66404        -4.78284
   H       -5.45772       -15.84144        -3.39257
   H       -3.73595       -16.44846        -5.84745
   H       -6.69240       -15.66015        -5.45245
   H       -5.00850       -16.21812        -7.95006
   H       -6.77622       -15.74236        -7.89251
*
