# ORCA input file
# SCF done       -188.834228880456          0.000242036240
! CAM-B3LYP def2-SVP def2/J RIJCOSX Grid4 TightSCF
%maxcore 5000
%tddft
    Mode sTDDFT
    Ethresh 5.0
    maxcore 5000
end

%pal
  nprocs 6
  end
* xyz 0 1
   C       -4.59474         0.85246         2.72323
   C       -5.12717         1.38044         1.57381
   C       -6.07785         2.42068         1.54842
   N       -6.84514         3.27096         1.46352
   C       -4.83679         0.93515         0.26758
   N       -4.67982         0.60988        -0.82292
   C       -4.98832         1.21349         4.08112
   C       -4.32855         0.34728         4.98556
   C       -4.50637         0.42205         6.34478
   C       -5.37570         1.40208         6.83670
   C       -6.02241         2.26946         5.92592
   C       -5.84490         2.19140         4.54964
   S       -7.04030         3.41487         6.74665
   C       -6.59078         2.71951         8.28084
   C       -5.72419         1.68362         8.18636
  Br       -7.30627         3.42845         9.86334
   C       -3.45737        -0.57965         4.23313
   O       -2.71263        -1.40892         4.71627
   C       -3.62517        -0.21790         2.81297
   C       -2.85924        -0.67777         1.77193
   C       -1.95857        -1.76028         1.75768
   S       -0.57223        -1.61865         0.69174
   C        0.08877        -3.07208         1.31100
   C       -0.70192        -3.67651         2.24118
   C       -0.36061        -4.95640         2.92423
   C       -1.90588        -2.95386         2.47990
   C       -2.97236        -3.49309         3.27600
   C       -4.28094        -3.35153         2.98701
   C       -5.35680        -3.89826         3.76132
   C       -5.24174        -4.31090         5.03600
   C       -6.35223        -4.85233         5.79880
   C       -7.56796        -4.23839         5.77120
   S       -8.76928        -4.97399         6.75820
   C       -7.63232        -6.20642         7.21097
   C       -6.36005        -6.02328         6.64631
   C       -5.32798        -6.93927         6.96315
   C       -3.96428        -6.71947         6.36746
   C       -3.07839        -5.83542         7.24808
   C       -5.58170        -8.01983         7.80070
   C       -4.44892        -8.80776         8.40643
   C       -4.34889        -8.49124         9.90154
   C       -6.90865        -8.28353         8.22654
   C       -7.46168        -9.38943         8.97881
   C       -8.74305        -9.13472         9.38628
   S       -9.40360        -7.66819         8.79190
   C       -7.89742        -7.31552         7.99521
   C       -6.92732       -10.71369         9.17511
   C       -6.23777       -11.40248         8.23362
   C       -5.78633       -12.72895         8.40414
   C       -5.03096       -13.40213         7.48256
   C       -4.57780       -14.74427         7.55971
   C       -3.83425       -15.14516         6.49413
   C       -3.63993       -14.13822         5.51836
   S       -4.45265       -12.66587         5.99025
   C       -2.91940       -14.22790         4.34337
   C       -2.26525       -15.36053         3.80922
   C       -1.64999       -15.12797         2.61883
   C       -1.76639       -13.79172         2.15021
   S       -2.70683       -12.84628         3.28728
   C       -1.24172       -13.33324         0.96889
   C       -1.26723       -12.02012         0.46003
   S       -0.73201       -11.71943        -1.18966
   C       -0.99833       -10.02264        -1.11351
   C       -1.47862        -9.67489         0.12576
   C       -1.62742       -10.79872         1.00195
   O       -2.06048       -10.39704         2.21614
   C       -2.20189        -9.04996         2.12566
   N       -2.63072        -8.36384         3.27401
   O       -2.75299        -7.15052         3.17271
   O       -2.83847        -8.99902         4.28713
   C       -1.86932        -8.54593         0.89366
   H       -3.99133        -0.25397         7.00902
   H       -6.35762         2.87789         3.89684
   H       -5.34353         1.14044         9.03198
   H       -2.86388        -0.09084         0.85969
   H        1.04069        -3.40937         0.94783
   H        0.51572        -5.41160         2.46936
   H       -1.19950        -5.64861         2.87269
   H       -0.14762        -4.76704         3.97618
   H       -2.66845        -4.12990         4.09205
   H       -4.56433        -2.81970         2.08644
   H       -6.31415        -3.98277         3.26262
   H       -4.29957        -4.18463         5.54471
   H       -7.81600        -3.33843         5.24234
   H       -4.08741        -6.25959         5.38603
   H       -3.47231        -7.67662         6.19746
   H       -3.58089        -4.90244         7.49644
   H       -2.14812        -5.60402         6.73339
   H       -2.83582        -6.33815         8.18120
   H       -3.50565        -8.55158         7.93360
   H       -4.58799        -9.87881         8.28778
   H       -4.23956        -7.42028        10.06038
   H       -3.48758        -8.99627        10.33323
   H       -5.24089        -8.82337        10.42756
   H       -9.37400        -9.79468         9.95042
   H       -7.21358       -11.21553        10.09122
   H       -6.03905       -10.94105         7.27432
   H       -6.04538       -13.24648         9.31870
   H       -4.82316       -15.36829         8.40114
   H       -3.41197       -16.12803         6.38564
   H       -2.27277       -16.31224         4.30955
   H       -1.10749       -15.86830         2.05786
   H       -0.75727       -14.06582         0.33731
   H       -0.78697        -9.40494        -1.96044
   H       -1.90214        -7.51690         0.60131
*
