# ORCA input file
# SCF done       -187.659169594476          0.000993568142
! CAM-B3LYP def2-SVP def2/J RIJCOSX Grid4 TightSCF
%maxcore 5000
%tddft
    Mode sTDDFT
    Ethresh 5.0
    maxcore 5000
end

%pal
  nprocs 6
  end
* xyz 0 1
   C       -3.16600        -7.46128        -3.60465
   C       -3.87208        -8.00317        -2.55900
   C       -3.83422        -9.36839        -2.20409
   N       -3.85628       -10.46397        -1.86145
   C       -4.71367        -7.30881        -1.66750
   N       -5.39093        -6.82930        -0.87139
   C       -2.23588        -8.19871        -4.45479
   C       -1.65704        -7.29853        -5.38257
   C       -0.72558        -7.68533        -6.31420
   C       -0.34426        -9.03117        -6.33371
   C       -0.92832        -9.92573        -5.40554
   C       -1.87048        -9.53212        -4.46289
   S       -0.31560       -11.53967        -5.60179
   C        0.70083       -10.99887        -6.91108
   C        0.59003        -9.67752        -7.18778
  Br        1.81520       -12.22733        -7.78607
   C       -2.22327        -5.95456        -5.16925
   O       -1.95301        -4.95301        -5.80615
   C       -3.17225        -6.08304        -4.05628
   C       -3.94565        -5.07861        -3.52951
   C       -4.07112        -3.73162        -3.89929
   S       -3.43886        -3.01811        -5.36267
   C       -4.33332        -1.58978        -5.07845
   C       -5.06406        -1.60070        -3.92453
   C       -5.89997        -0.45918        -3.44872
   C       -4.90024        -2.81619        -3.21476
   C       -5.51123        -3.04628        -1.93812
   C       -4.96742        -3.75957        -0.92542
   C       -5.58734        -4.04484         0.32938
   C       -6.89767        -3.85197         0.60576
   C       -7.58105        -4.17569         1.81504
   O       -8.93046        -4.36039         1.68866
   C       -9.43316        -4.75923         2.83994
   C       -8.43957        -4.83755         3.78829
   N       -8.59672        -5.21738         5.13352
   O       -9.72027        -5.43334         5.53360
   O       -7.58256        -5.29661         5.81486
   C       -7.21926        -4.43543         3.14106
   N       -6.04667        -4.30571         3.82193
   C       -4.97371        -3.55661         3.49614
   C       -3.85436        -3.47367         4.27505
   C       -2.69177        -2.70881         4.00386
   C       -1.73397        -2.80030         4.96540
   C       -2.08360        -3.63730         6.05104
   S       -3.67080        -4.32121         5.81198
   C       -1.32955        -3.91666         7.17757
   C       -0.03788        -3.44404         7.49039
   C        0.43589        -3.89608         8.68696
   C       -0.45835        -4.74237         9.37994
   S       -1.92059        -4.96166         8.45298
   C       -0.23504        -5.33828        10.60721
   C       -1.17092        -6.12708        11.26389
   C       -1.02966        -6.79095        12.46506
   C        0.12462        -7.11048        13.25651
   C        1.41918        -7.27315        12.81570
   C        2.49747        -7.61579        13.65297
   N        3.42045        -7.87202        14.28764
   C        1.81340        -7.23081        11.46463
   N        2.19498        -7.25646        10.38116
   C       -0.34712        -7.45862        14.59801
   C       -1.76115        -7.54260        14.57177
   C       -2.23991        -7.18197        13.21899
   O       -3.38545        -7.17067        12.82173
   C       -2.50125        -7.88885        15.67443
   C       -1.81419        -8.15388        16.86489
   C       -0.40436        -8.05370        16.88415
   C        0.34632        -7.71180        15.76456
   S        0.24048        -8.40994        18.45861
   C       -1.37242        -8.69099        19.05878
   C       -2.34446        -8.52365        18.13201
  Br       -1.62026        -9.17135        20.85563
   H       -0.30471        -6.97284        -7.00613
   H       -2.28287       -10.25407        -3.77849
   H        1.14407        -9.17807        -7.96138
   H       -4.59630        -5.35937        -2.71057
   H       -4.27008        -0.78163        -5.78224
   H       -5.83312         0.37236        -4.14468
   H       -5.56635        -0.12379        -2.46781
   H       -6.94432        -0.75946        -3.36742
   H       -6.45671        -2.54464        -1.78398
   H       -3.95739        -4.13106        -1.03496
   H       -4.95160        -4.51018         1.06758
   H       -7.56425        -3.50731        -0.17231
   H      -10.48199        -4.97164         2.90984
   H       -6.07148        -4.72473         4.75687
   H       -5.03084        -2.98396         2.58302
   H       -2.60456        -2.11963         3.10837
   H       -0.78949        -2.28904         4.92771
   H        0.50656        -2.78951         6.83390
   H        1.40171        -3.65286         9.09214
   H        0.71802        -5.13294        11.07239
   H       -2.17243        -6.16363        10.84423
   H       -3.57684        -7.95269        15.62318
   H        1.41959        -7.64499        15.83016
   H       -3.39262        -8.65422        18.33046
*
