# ORCA input file
# SCF done       -172.307125628267          0.000494340419
! CAM-B3LYP def2-SVP def2/J RIJCOSX Grid4 TightSCF
%maxcore 5000
%tddft
    Mode sTDDFT
    Ethresh 5.0
    maxcore 5000
end

%pal
  nprocs 6
  end
* xyz 0 1
   C       -5.54040         3.54863         7.27521
   C       -4.62334         2.52361         7.27916
   C       -4.06343         1.97050         8.44639
   N       -3.57082         1.48764         9.36496
   C       -4.14621         1.87477         6.12346
   N       -3.73354         1.28495         5.22769
   C       -6.13488         4.16361         8.45829
   C       -7.10016         5.10925         8.03572
   C       -7.84389         5.85408         8.91630
   C       -7.62845         5.65204        10.28446
   C       -6.66130         4.70711        10.69753
   C       -5.90576         3.95535         9.80450
   S       -6.55355         4.61944        12.43024
   C       -7.79524         5.83527        12.57227
   C       -8.26664         6.28575        11.38595
  Br       -8.35086         6.39683        14.27400
   C       -7.14545         5.13873         6.55857
   O       -7.80665         5.89756         5.87588
   C       -6.14990         4.14440         6.11325
   C       -5.71794         4.00525         4.81032
   C       -6.40781         4.41545         3.66608
   S       -5.50528         4.87461         2.24811
   C       -6.91546         5.39358         1.39273
   C       -8.07843         5.08856         2.13102
   C       -7.79016         4.52709         3.41014
   C       -8.83212         4.04808         4.21945
   C      -10.12260         4.19038         3.79066
   F      -11.13333         3.73198         4.54503
   C      -10.41198         4.76748         2.53868
   F      -11.69209         4.85519         2.13577
   C       -9.41462         5.19078         1.70489
   C       -6.75958         6.04141         0.14327
   C       -7.63942         6.91149        -0.41421
   C       -7.43006         7.50967        -1.69000
   C       -8.18867         8.46367        -2.26832
   C       -9.40087         9.09221        -1.66709
   C       -7.88082         8.90748        -3.67725
   N       -8.76157         8.22110        -4.60484
   C       -9.99637         8.64922        -4.96095
   C      -10.51065         9.89846        -4.79398
   C      -11.79846        10.25903        -5.22703
   C      -12.35262        11.49948        -5.04276
   C      -13.64390        11.93167        -5.42516
   C      -13.92201        13.22666        -5.10598
   C      -12.86427        13.89975        -4.45645
   S      -11.49978        12.82501        -4.25249
   C      -12.83267        15.21385        -4.02938
   C      -13.85456        16.18107        -4.12248
   C      -13.50799        17.40132        -3.62532
   C      -12.19004        17.47774        -3.11240
   S      -11.41219        15.91275        -3.27610
   C      -11.61545        18.61110        -2.58955
   C      -10.31930        18.78311        -2.08460
   C       -9.26958        17.87905        -1.92911
   C       -8.13603        18.47018        -1.39926
   C       -8.29293        19.83710        -1.13923
   S       -9.85942        20.40044        -1.54556
   C       -7.08628        20.34727        -0.61638
   C       -6.15129        19.31514        -0.53514
   C       -6.75064        18.02984        -1.02527
   C       -4.92507        19.74114        -0.03279
   C       -4.91394        21.08902         0.26905
   S       -6.45564        21.84913        -0.07307
   C       -3.81138        21.83716         0.79634
   C       -3.83007        23.14011         1.07248
   H       -8.57269         6.56629         8.56247
   H       -5.17734         3.25020        10.16855
   H       -9.03227         7.03367        11.28851
   H       -4.72360         3.60825         4.64397
   H       -8.63195         3.54605         5.15058
   H       -9.66832         5.55006         0.72214
   H       -5.81837         5.86031        -0.36160
   H       -8.51869         7.19463         0.14110
   H       -6.56214         7.15207        -2.23240
   H       -9.61535         8.71615        -0.67304
   H      -10.27054         8.91796        -2.30278
   H       -9.26255        10.17160        -1.60276
   H       -6.85155         8.65632        -3.94706
   H       -8.01966         9.98239        -3.79320
   H       -8.59907         7.22711        -4.66607
   H      -10.59618         7.90380        -5.46776
   H       -9.93909        10.67036        -4.30032
   H      -12.40289         9.51315        -5.72649
   H      -14.32852        11.26877        -5.92479
   H      -14.85455        13.71562        -5.32346
   H      -14.81405        15.95472        -4.55163
   H      -14.15807        18.25845        -3.61394
   H      -12.24473        19.49230        -2.57948
   H       -9.34901        16.84139        -2.19404
   H       -6.76516        17.26356        -0.24724
   H       -6.20721        17.62494        -1.88152
   H       -4.06703        19.10870         0.11161
   H       -2.91330        21.25644         0.96638
   H       -4.71293        23.73609         0.90994
   H       -2.96757        23.64670         1.46676
*
