# ORCA input file
# SCF done       -205.110992155637          0.000759332640
! CAM-B3LYP def2-SVP def2/J RIJCOSX Grid4 TightSCF
%maxcore 5000
%tddft
    Mode sTDDFT
    Ethresh 5.0
    maxcore 5000
end

%pal
  nprocs 6
  end
* xyz 0 1
   C       -5.80117        -2.46981         1.76059
   C       -4.47623        -2.19369         1.99276
   C       -3.49544        -3.17762         2.23390
   N       -2.65022        -3.92803         2.43667
   C       -3.89314        -0.91031         2.02230
   N       -3.33897         0.09547         2.06305
   C       -6.38614        -3.80852         1.72579
   C       -7.76858        -3.69217         1.43931
   C       -8.60202        -4.77883         1.34042
   C       -8.04455        -6.04708         1.53613
   C       -6.66356        -6.15523         1.82264
   C       -5.82058        -5.05396         1.92070
   S       -6.18216        -7.81156         2.03087
   C       -7.82048        -8.32902         1.73470
   C       -8.68517        -7.31557         1.49158
  Br       -8.23627       -10.15755         1.77556
   C       -8.10805        -2.26658         1.28467
   O       -9.21277        -1.81378         1.03065
   C       -6.86558        -1.52494         1.50132
   C       -6.74370        -0.15397         1.47956
   C       -7.70547         0.82737         1.24401
   S       -9.40995         0.61383         0.86560
   C       -9.70093         2.33021         0.76126
   C       -8.52370         3.04079         1.01550
   C       -7.42358         2.19662         1.27810
   S       -6.01354         3.14211         1.57730
   C       -7.01749         4.57057         1.32592
   N       -8.24666         4.36985         1.05296
   C      -10.95331         2.89445         0.46627
   C      -12.07116         2.16276         0.19417
   C      -13.32976         2.71686        -0.10176
   S      -13.59378         4.43640        -0.10185
   C      -15.27203         4.23187        -0.52895
   C      -15.59104         2.87412        -0.64998
   C      -14.50740         2.03290        -0.41952
   C      -14.59321         0.53855        -0.48874
   C      -15.88059         0.07562        -1.17921
   C      -15.71952         0.15013        -2.69448
   F      -15.24181         1.31625        -3.14878
   F      -14.86872        -0.79355        -3.13294
   F      -16.87945        -0.05903        -3.33859
   C      -17.08675         0.87962        -0.68771
   C      -16.95265         2.36753        -1.00733
   C      -16.12055         5.33304        -0.71389
   C      -15.74287         6.63466        -0.50098
   C      -16.57987         7.73342        -0.68562
   C      -16.21686         9.03589        -0.40973
   C      -17.00676        10.19398        -0.57251
   C      -16.39102        11.34935        -0.18484
   C      -15.08331        11.15801         0.30700
   S      -14.64951         9.47077         0.24852
   C      -14.21505        12.12139         0.80267
   C      -14.44719        13.50454         0.93247
   C      -13.40037        14.18649         1.48435
   C      -12.29491        13.37425         1.81574
   S      -12.61982        11.71240         1.38972
   C      -11.10845        13.80098         2.38493
   C      -10.05921        12.95370         2.71630
   C       -8.83688        13.29318         3.25920
   C       -8.17205        14.55695         3.41181
   C       -8.32612        15.68032         2.63071
   C       -7.61156        16.87733         2.82733
   N       -7.07420        17.88515         2.95267
   C       -9.12571        15.74391         1.47320
   N       -9.72175        15.85134         0.49708
   C       -7.12368        14.37988         4.41785
   C       -7.01329        12.99911         4.71675
   C       -8.04170        12.25783         3.95449
   O       -8.22435        11.05905         3.93447
   C       -6.08909        12.50791         5.60480
   C       -5.24204        13.42396         6.23961
   C       -5.37080        14.80081         5.94558
   C       -6.29955        15.29766         5.03752
   S       -4.23784        15.75720         6.85214
   C       -3.61246        14.31206         7.60109
   C       -4.21947        13.17208         7.19567
  Br       -2.21927        14.44624         8.85066
   H       -9.65077        -4.65563         1.12008
   H       -4.77560        -5.19161         2.14165
   H       -9.73146        -7.45491         1.28924
   H       -5.76129         0.25842         1.67847
   H       -6.57934         5.54550         1.40816
   H      -10.99642         3.97608         0.45826
   H      -11.99509         1.08349         0.20232
   H      -14.57372         0.13183         0.52667
   H      -13.72620         0.13595        -1.01799
   H      -16.04442        -0.98679        -0.96717
   H      -17.15263         0.74479         0.39352
   H      -18.00203         0.48862        -1.13453
   H      -17.71552         2.92185        -0.45689
   H      -17.13032         2.54210        -2.07287
   H      -17.13135         5.12732        -1.03933
   H      -14.73388         6.82734        -0.15690
   H      -17.58168         7.56754        -1.06045
   H      -18.00537        10.14228        -0.96917
   H      -16.84405        12.32254        -0.23839
   H      -15.36976        13.96211         0.62412
   H      -13.38705        15.24758         1.65754
   H      -11.03657        14.85683         2.60115
   H      -10.23392        11.88517         2.62836
   H       -6.02102        11.45055         5.80725
   H       -6.36221        16.35660         4.84952
   H       -3.95971        12.19310         7.55509
*
