# ORCA input file
# SCF done       -197.099373561901          0.001462878756
! CAM-B3LYP def2-SVP def2/J RIJCOSX Grid4 TightSCF
%maxcore 5000
%tddft
    Mode sTDDFT
    Ethresh 5.0
    maxcore 5000
end

%pal
  nprocs 6
  end
* xyz 0 1
   S        6.38473         2.93605        -1.22639
   C        5.37851         1.38118        -1.31861
   C        4.42171         1.52997        -2.50222
   C        6.31457         0.19506        -1.50230
   C        4.60752         1.33148        -0.02557
   C        4.66193         2.49405         0.70217
   C        5.53456         3.51233         0.16441
   C        5.72111         4.78579         0.64854
   C        5.05283         5.36802         1.73610
   N        4.55069         5.94643         2.59348
   C        6.63557         5.65765         0.02133
   N        7.38433         6.36980        -0.47696
   C        3.90656         2.82334         1.84048
   N        3.29105         3.18116         2.74180
   C        3.83769         0.15851         0.24712
   N        3.47881        -0.62471        -0.76660
   C        2.67189        -1.56627        -0.24676
   C        2.51555        -1.39354         1.19508
   C        1.64476        -2.44569         1.74791
   O        1.30341        -2.62723         2.89570
   C        1.29787        -3.23743         0.54933
   C        1.94743        -2.66889        -0.64689
   N        1.66074        -3.40305        -1.74705
   C        0.88955        -4.37478        -1.31648
   C        0.63233        -4.33672         0.10930
   C        3.29720        -0.31593         1.53933
   C        3.56646         0.23109         2.82724
   C        2.68730         0.09721         3.84517
   C        2.73044         0.77992         5.10660
   C        1.60069         0.72061         5.90883
   C        1.53251         1.48747         7.07840
   C        0.50050         1.64505         8.00943
   C       -0.77364         0.88328         8.03947
   C       -0.99519         0.22751         9.41280
   N        0.23082        -0.42910         9.83612
   C       -1.97836         1.76170         7.62501
   N       -2.03110         1.80142         6.18446
   C        0.92533         2.66526         8.93584
   C        0.28611         3.30645         9.93481
   C        0.94225         4.40989        10.67869
   C        2.41202         4.55104        10.44414
   C        3.02308         3.94275         9.39707
   C        2.30779         3.04110         8.59066
   C        2.65102         2.33444         7.44251
   C        3.80817         2.34159         6.64099
   C        3.84081         1.58073         5.51135
   C        0.55109         5.76640        10.13481
   C        0.40346         6.03821         8.82371
   C        0.12568         7.34709         8.34850
   N       -0.15940         8.36215         9.16342
   C       -0.35959         9.42621         8.37311
   C       -0.18505         9.08651         6.95560
   C       -0.40326        10.27136         6.10727
   O       -0.32743        10.34931         4.89501
   C       -0.72723        11.31358         7.08461
   C       -0.68796        10.76729         8.45476
   N       -0.98650        11.72154         9.35898
   C       -1.20877        12.81080         8.64989
   C       -1.06500        12.62633         7.22884
   C        0.12380         7.74505         6.92592
   C        0.40290         6.88688         5.82868
   C        0.43794         7.33531         4.54917
   C        0.67134         6.55611         3.38472
   C        0.63594         5.18721         3.25874
   C        0.88983         4.69362         1.93223
   C        0.86182         3.37992         1.52612
   C        0.47426         2.29973         2.33494
   N        0.14349         1.37321         2.92708
   C        1.33022         3.02439         0.25058
   N        1.79067         2.73687        -0.76215
   S        1.26757         5.97907         0.83830
   C        0.95026         7.29605         2.10438
   C        2.19564         8.16866         2.22268
   C       -0.25928         8.11330         1.65180
   C        0.40380         4.29328         4.31602
   N        0.21523         3.59077         5.20574
   H        4.98969         1.69691        -3.41474
   H        3.74004         2.36315        -2.34318
   H        3.83562         0.61942        -2.59521
   H        6.89800         0.32102        -2.41019
   H        5.72463        -0.71417        -1.58673
   H        6.99645         0.10393        -0.65918
   H        0.50504        -5.10725        -2.00475
   H        0.03519        -5.04060         0.65450
   H        4.48226         0.79488         2.93702
   H        1.79888        -0.49317         3.66972
   H        0.75650         0.12850         5.59118
   H       -0.71136         0.08637         7.29280
   H       -1.85714        -0.45641         9.33294
   H       -1.23841         0.98117        10.16533
   H        0.51003        -1.12382         9.15094
   H        0.08996        -0.90648        10.71964
   H       -1.89046         2.75166         8.10325
   H       -2.90013         1.29224         7.98383
   H       -1.21825         2.27069         5.79505
   H       -2.86915         2.25762         5.84789
   H       -0.74359         3.10629        10.18966
   H        0.69312         4.35760        11.74159
   H        2.94437         5.23228        11.08836
   H        4.06901         4.11967         9.19354
   H        4.65000         2.95960         6.91591
   H        4.72469         1.59256         4.89339
   H        0.47644         6.57895        10.84249
   H        0.51535         5.25270         8.08883
   H       -1.47184        13.73128         9.14115
   H       -1.20261        13.38288         6.48179
   H        0.61324         5.85302         6.05229
   H        0.28521         8.39347         4.38402
   H        3.05309         7.57023         2.52707
   H        2.03361         8.95578         2.95516
   H        2.41511         8.62922         1.26194
   H       -1.14342         7.48338         1.56906
   H       -0.05835         8.56035         0.68115
   H       -0.46152         8.91080         2.36344
*
