# ORCA input file
# SCF done       -194.857754652990          0.000362891945
! CAM-B3LYP def2-SVP def2/J RIJCOSX Grid4 TightSCF
%maxcore 5000
%tddft
    Mode sTDDFT
    Ethresh 5.0
    maxcore 5000
end

%pal
  nprocs 6
  end
* xyz 0 1
   C        1.34746        -5.72566        -8.11963
   C        2.60291        -5.26353        -7.82843
   F        3.62191        -6.13209        -7.75132
   C        2.88380        -3.89964        -7.57886
   F        4.13559        -3.58165        -7.24054
   C        1.90027        -2.92788        -7.59822
   C        0.60565        -3.38107        -7.93851
   C        0.33563        -4.76206        -8.18091
   N       -0.97669        -4.86638        -8.45063
   N       -1.41973        -3.64068        -8.38336
   N       -0.55047        -2.71795        -8.09363
   C       -2.79732        -3.32898        -8.60308
   C        2.15982        -1.53682        -7.28054
   N        3.18241        -0.88463        -7.77564
   C        3.03517         0.40257        -7.36669
   C        1.81176         0.56060        -6.57036
   C        1.64555         1.95738        -6.14050
   O        0.75001         2.44782        -5.48990
   C        2.84430         2.60766        -6.71277
   C        3.65893         1.61905        -7.45646
   N        4.77043         2.20683        -7.96867
   C        4.70217         3.45707        -7.59112
   C        3.52900         3.77471        -6.79556
   C        1.25832        -0.68717        -6.46266
   C        0.08177        -1.11229        -5.78138
   C       -0.09003        -2.35599        -5.28328
   C       -1.31837        -2.92547        -4.79944
   C       -2.53541        -2.30082        -4.97004
   C       -3.72891        -2.95388        -4.61227
   C       -5.05854        -2.56076        -4.70516
   C       -5.62704        -1.28029        -5.21561
   C       -5.15882        -0.06735        -4.38927
   N       -5.88166         1.11875        -4.81233
   C       -5.30853        -1.06652        -6.70431
   N       -5.68047        -2.24844        -7.47493
   C       -5.85036        -3.65890        -4.20690
   C       -7.17920        -3.78815        -4.03731
   C       -7.77934        -5.04289        -3.49721
   C       -6.79762        -6.12052        -3.18180
   C       -5.46755        -5.96170        -3.32219
   C       -4.94088        -4.74723        -3.82155
   C       -3.65618        -4.30200        -4.05905
   C       -2.39211        -4.90648        -3.85992
   C       -1.26918        -4.23847        -4.22176
   C       -8.86701        -5.44861        -4.45245
   C       -8.84459        -6.53778        -5.23132
   C       -9.92491        -6.81442        -6.13144
   N      -11.05503        -6.12804        -6.05935
   C      -11.89044        -6.68435        -6.95917
   C      -11.24933        -7.82033        -7.64052
   C      -12.16788        -8.42406        -8.62276
   O      -11.97770        -9.36526        -9.35746
   C      -13.37450        -7.58177        -8.48472
   C      -13.15810        -6.53566        -7.46126
   N      -14.25501        -5.74566        -7.34514
   C      -15.11233        -6.22320        -8.21327
   C      -14.62539        -7.36425        -8.96335
   C       -9.97302        -7.89256        -7.15116
   C       -8.94853        -8.80949        -7.54955
   C       -7.62786        -8.55742        -7.46680
   C       -6.54464        -9.42974        -7.84322
   C       -6.62669       -10.70421        -8.38395
   F       -7.81846       -11.27428        -8.62188
   C       -5.48611       -11.47000        -8.70964
   F       -5.69165       -12.69055        -9.23232
   C       -4.20289       -11.03260        -8.51586
   C       -4.07217        -9.75548        -7.96110
   C       -5.22081        -8.97315        -7.63559
   N       -4.78053        -7.81760        -7.11468
   N       -3.48070        -7.92774        -7.14080
   N       -2.99139        -9.03434        -7.62256
   C       -2.63887        -6.87929        -6.65776
   H        1.15658        -6.77084        -8.29339
   H       -3.22435        -4.07662        -9.26733
   H       -2.85970        -2.33834        -9.04739
   H       -3.35515        -3.32815        -7.66352
   H        5.47204         4.15370        -7.87466
   H        3.29524         4.73842        -6.38798
   H       -0.68420        -0.35728        -5.67335
   H        0.75934        -3.02903        -5.27874
   H       -2.57521        -1.31671        -5.40608
   H       -6.71807        -1.33110        -5.12323
   H       -4.09702         0.11170        -4.56366
   H       -5.28833        -0.30455        -3.31943
   H       -6.85478         1.06433        -4.52995
   H       -5.48255         1.94919        -4.39114
   H       -4.23593        -0.91410        -6.84065
   H       -5.82277        -0.14835        -7.02227
   H       -6.65146        -2.48552        -7.29484
   H       -5.60348        -2.04777        -8.46682
   H       -7.87381        -3.00087        -4.29635
   H       -8.29108        -4.77423        -2.55671
   H       -7.21397        -7.04144        -2.80334
   H       -4.78801        -6.75901        -3.05867
   H       -2.33689        -5.89234        -3.42226
   H       -0.29762        -4.68989        -4.08062
   H       -9.71039        -4.77677        -4.53429
   H       -8.02271        -7.23581        -5.19050
   H      -16.08368        -5.77210        -8.32092
   H      -15.17137        -7.89181        -9.72011
   H       -9.31724        -9.72341        -7.99332
   H       -7.27908        -7.59805        -7.10903
   H       -3.35309       -11.64030        -8.77332
   H       -3.26464        -6.15287        -6.14440
   H       -2.11273        -6.39800        -7.48757
   H       -1.89925        -7.29541        -5.97528
*
