# ORCA input file
# SCF done       -188.290262711320          0.002120917381
! CAM-B3LYP def2-SVP def2/J RIJCOSX Grid4 TightSCF
%maxcore 5000
%tddft
    Mode sTDDFT
    Ethresh 5.0
    maxcore 5000
end

%pal
  nprocs 6
  end
* xyz 0 1
   C       -4.70003        -4.20272        -9.36631
   C       -4.32032        -4.38903        -8.04065
   C       -3.08103        -4.99999        -7.74857
   C       -2.22997        -5.42085        -8.75630
   C       -2.62743        -5.22476       -10.06461
   C       -3.84831        -4.62312       -10.36508
   S       -2.86650        -5.10392        -6.02949
   C       -4.44370        -4.32164        -5.85847
   N       -5.04515        -4.02775        -6.94254
   C       -4.95248        -4.05842        -4.51501
   C       -4.65720        -2.87333        -3.83880
   C       -3.80787        -1.81802        -4.41046
   O       -3.26489        -1.79703        -5.47279
   S       -3.67039        -0.48932        -3.20350
   C       -4.65879        -1.34836        -1.97579
   O       -4.84276        -0.90538        -0.87740
   C       -5.13309        -2.61987        -2.54814
   C       -5.93864        -3.54172        -1.86857
   C       -6.23083        -4.72875        -2.54868
   C       -5.74191        -4.98390        -3.83396
   C       -6.11769        -6.29243        -4.39323
   O       -5.79173        -6.76846        -5.43848
   S       -7.17777        -7.13142        -3.20856
   C       -7.09382        -5.79018        -2.00818
   O       -7.68082        -5.81166        -0.96671
   C       -6.40813        -3.28182        -0.49956
   C       -7.28195        -2.25449        -0.25219
   C       -7.62593        -1.94783         1.07917
   C       -8.39990        -0.92105         1.61930
   C       -9.17233         0.15008         0.94625
   C       -8.25696         1.28460         0.40801
   N       -7.35734         0.80097        -0.61291
   C      -10.07344        -0.35075        -0.19851
   N      -11.09882         0.64506        -0.45025
   C       -8.28717        -1.03366         3.05850
   C       -8.76943        -0.25468         4.04660
   C       -8.42571        -0.52401         5.47065
   C       -7.68857        -1.79587         5.71247
   C       -7.21754        -2.56580         4.70797
   C       -7.45834        -2.19988         3.36650
   C       -7.05612        -2.74544         2.14982
   C       -6.21247        -3.83044         1.85226
   C       -5.89509        -4.08838         0.55158
   C       -9.65467        -0.38228         6.33539
   C      -10.13826         0.80243         6.67526
   C      -11.36992         1.02751         7.42896
   C      -11.55006         0.64605         8.76191
   C      -10.53444        -0.04320         9.57490
   O       -9.43730        -0.39819         9.25421
   S      -11.19145        -0.29486        11.22974
   C      -12.76040         0.50168        10.85456
   O      -13.64745         0.60889        11.64672
   C      -12.72780         0.95284         9.45553
   C      -13.77868         1.65093         8.85952
   C      -13.61530         2.00128         7.51893
   C      -12.43947         1.69924         6.82543
   C      -12.43842         2.11489         5.41822
   O      -11.57493         1.94270         4.60109
   S      -13.99089         2.93151         5.05528
   C      -14.63661         2.69739         6.72636
   O      -15.72468         3.05500         7.06096
   C      -14.98236         2.00629         9.60678
   N      -15.13575         3.09429        10.25292
   C      -16.35369         3.15520        10.86391
   C      -16.82158         4.20641        11.64620
   C      -18.08056         4.11112        12.19886
   C      -18.87844         2.98869        11.98432
   C      -18.43523         1.93390        11.21097
   C      -17.17120         2.02259        10.65335
   S      -16.33978         0.87566         9.65008
   H       -5.64681        -3.73601        -9.58454
   H       -1.28613        -5.88654        -8.52083
   H       -1.97990        -5.54374       -10.86745
   H       -4.12804        -4.48408       -11.39838
   H       -7.67116        -1.65882        -1.06105
   H       -9.82634         0.61773         1.68969
   H       -7.74175         1.74052         1.26757
   H       -8.92259         2.02555        -0.03847
   H       -6.54987         0.32940        -0.21997
   H       -7.03545         1.55145        -1.20901
   H      -10.47711        -1.34148         0.06797
   H       -9.47861        -0.44779        -1.10692
   H      -11.75813         0.68809         0.32004
   H      -11.61442         0.43019        -1.29502
   H       -9.40042         0.60345         3.86028
   H       -7.74823         0.29763         5.76388
   H       -7.52445        -2.05380         6.74721
   H       -6.66009        -3.46634         4.91756
   H       -5.80647        -4.43326         2.65030
   H       -5.22642        -4.89825         0.30064
   H      -10.15175        -1.29812         6.61710
   H       -9.65024         1.70896         6.33672
   H      -16.19305         5.06788        11.80395
   H      -18.45736         4.91796        12.80922
   H      -19.86035         2.94108        12.43059
   H      -19.05065         1.06382        11.04404
*
