# ORCA input file
# SCF done       -211.830796794687          0.000379950824
! CAM-B3LYP def2-SVP def2/J RIJCOSX Grid4 TightSCF
%maxcore 5000
%tddft
    Mode sTDDFT
    Ethresh 5.0
    maxcore 5000
end

%pal
  nprocs 6
  end
* xyz 0 1
   C       -2.01151        -0.81708        -0.17896
   C       -0.82838        -0.93053         0.49177
   C       -0.02292        -2.09093         0.49019
   N        0.67000        -3.00446         0.52102
   C       -0.25679         0.09883         1.27227
   N        0.24917         0.89370         1.92660
   C       -2.65933        -1.83703        -0.98802
   C       -3.85364        -1.30765        -1.55099
   C       -4.68454        -2.05169        -2.35734
   C       -4.32635        -3.37557        -2.62087
   C       -3.13357        -3.89572        -2.05619
   C       -2.29279        -3.14636        -1.24285
   S       -2.89259        -5.54995        -2.51383
   C       -4.35564        -5.53491        -3.43534
   C       -5.00248        -4.34877        -3.40830
   C       -4.01771         0.08250        -1.12704
   O       -4.89274         0.87012        -1.42152
   C       -2.86375         0.36641        -0.22289
   C       -2.75248         1.53772         0.41986
   C       -3.74311         2.59951         0.24448
   C       -4.98462         2.60025         0.88371
   C       -5.40913         1.50058         1.77067
   O       -4.77341         0.54524         2.10240
   S       -7.08247         1.81759         2.31098
   C       -7.19191         3.36506         1.41512
   O       -8.18814         4.02524         1.41532
   C       -5.91335         3.62251         0.70414
   C       -5.65397         4.73745        -0.11300
   C       -4.42364         4.71479        -0.78794
   C       -3.49825         3.68880        -0.58856
   C       -2.23949         3.80843        -1.34020
   O       -1.32671         3.03720        -1.34846
   S       -2.28173         5.33161        -2.27706
   C       -3.95893         5.70299        -1.77921
   O       -4.57661         6.61385        -2.25575
   C       -6.65168         5.84178        -0.20290
   S       -5.98563         7.54871        -0.06310
   C       -7.64457         8.13975        -0.48333
   C       -8.22551         7.20122        -1.57378
   C       -7.45307         5.86201        -1.50717
   C       -8.08778         7.99143        -2.89957
   O       -9.04476         8.55927        -3.38694
   N       -6.84695         8.08189        -3.37895
   N       -9.62336         6.99261        -1.26950
   C      -10.71631         6.89326        -2.03299
   C      -10.81311         6.57514        -3.41759
   C       -9.71481         6.08976        -4.25909
   O       -8.62147         5.71934        -3.94026
   S      -10.25424         5.98944        -5.96820
   C      -11.92084         6.45967        -5.56259
   O      -12.77249         6.59939        -6.39233
   C      -12.03078         6.63872        -4.09806
   C      -13.25841         6.86703        -3.45838
   C      -13.17781         7.07651        -2.07872
   C      -11.97247         7.10398        -1.39435
   C      -12.11595         7.36588         0.03807
   O      -11.23323         7.47619         0.85426
   S      -13.84136         7.52345         0.45956
   C      -14.37229         7.24182        -1.23086
   O      -15.51760         7.19716        -1.56327
   C      -14.54587         6.87789        -4.13046
   C      -15.06393         5.93860        -4.93816
   C      -14.55472         4.64484        -5.37554
   C      -13.74659         3.79816        -4.66897
   C      -13.31338         2.54100        -5.14531
   N      -12.91801         1.51758        -5.48102
   C      -13.28472         4.03074        -3.35841
   N      -12.88717         4.13923        -2.28643
   C      -15.18422         4.35732        -6.65297
   C      -16.22309         5.29861        -6.88256
   C      -16.26024         6.27101        -5.77922
   O      -17.03130         7.17969        -5.60194
   C      -17.00912         5.26626        -8.00968
   C      -16.75630         4.26813        -8.95513
   C      -15.70766         3.34297        -8.72322
   C      -14.91537         3.36998        -7.58335
   S      -15.56705         2.21241       -10.03133
   C      -16.88593         2.96588       -10.85719
   C      -17.41257         4.01808       -10.19251
   H       -5.58477        -1.62182        -2.76850
   H       -1.39859        -3.58716        -0.83439
   H       -4.64710        -6.43029        -3.94922
   H       -5.92662        -4.15427        -3.92150
   H       -1.92555         1.75896         1.08083
   H       -7.34359         5.75683         0.63689
   H       -7.57164         9.17291        -0.81797
   H       -8.25309         8.10740         0.42362
   H       -6.79342         5.74790        -2.36371
   H       -8.15895         5.03151        -1.51840
   H       -6.04567         7.64552        -2.94879
   H       -6.70872         8.60421        -4.22888
   H       -9.85334         7.12366        -0.28273
   H      -15.16482         7.75486        -3.96715
   H      -17.79319         5.99237        -8.15784
   H      -14.11967         2.65474        -7.45545
   H      -17.18994         2.56925       -11.80642
   H      -18.23584         4.60736       -10.55346
*
