# ORCA input file
# SCF done       -193.465647325373          0.000666270582
! CAM-B3LYP def2-SVP def2/J RIJCOSX Grid4 TightSCF
%maxcore 5000
%tddft
    Mode sTDDFT
    Ethresh 5.0
    maxcore 5000
end

%pal
  nprocs 6
  end
* xyz 0 1
   C       -2.03018         3.27168         6.84503
   C       -0.84527         3.74048         7.34266
   C        0.20426         2.91509         7.80293
   N        1.12321         2.30395         8.12019
   C       -0.46371         5.09687         7.42848
   N       -0.07761         6.17297         7.53302
   C       -2.44332         1.87605         6.83382
   C       -3.71209         1.77337         6.21351
   C       -4.36179         0.57210         6.05043
   C       -3.73380        -0.58178         6.52662
   C       -2.46657        -0.46816         7.14826
   C       -1.81010         0.74345         7.31351
   S       -1.87725        -2.02076         7.65676
   C       -3.30007        -2.79111         7.04685
   C       -4.18122        -1.93364         6.48962
   C       -4.16521         3.11057         5.79200
   O       -5.18564         3.36303         5.18665
   C       -3.08231         4.04864         6.19454
   C       -2.97863         5.35148         5.82185
   C       -3.90635         6.11895         5.06187
   C       -3.44589         7.07931         4.04415
   N       -4.39322         7.58961         3.31827
   C       -5.55134         7.06087         3.80217
   C       -5.27509         6.16518         4.95024
   C       -6.51877         5.69674         5.50467
   S       -6.76723         5.01456         6.97776
   C       -7.51311         6.11595         4.54680
   C       -6.89143         7.00377         3.54208
   N       -7.81823         7.40545         2.62382
   C       -8.93039         6.82988         2.97739
   C       -8.82931         5.99802         4.18447
   C       -9.83870         5.12526         4.74282
   C       -9.41080         3.90465         5.22591
   C      -10.31787         2.96298         5.72846
   C      -11.67707         3.24290         5.65650
   C      -12.15544         4.47469         5.19792
   C      -11.21939         5.45884         4.78447
   C      -11.67057         6.76948         4.48225
   C      -12.99081         7.07692         4.49937
   C      -13.97183         6.09771         4.81172
   C      -13.56599         4.78907         5.16728
   C      -14.56712         3.85364         5.47170
   C      -15.89777         4.19283         5.43234
   C      -16.29066         5.48723         5.08955
   C      -15.33804         6.42391         4.78384
   C       -9.84181         1.73003         6.31306
   C       -8.63309         1.63312         6.90674
   C       -8.07947         0.46494         7.49317
   C       -8.51562        -0.92896         7.36583
   N       -7.73900        -1.79384         7.95715
   C       -6.74622        -1.06164         8.53999
   C       -6.94689         0.37303         8.27517
   C       -5.88432         1.13796         8.85937
   S       -5.61392         2.76319         8.82418
   C       -5.02797         0.14320         9.45123
   C       -5.57332        -1.20062         9.24372
   N       -4.70844        -2.13885         9.72839
   C       -3.69486        -1.47710        10.21010
   C       -3.80992        -0.01877        10.07423
   C       -2.88842         1.02339        10.33866
   C       -1.73059         1.03624        11.04245
   C       -1.11450         0.10294        11.96162
   C       -1.78625        -0.72588        12.82036
   C       -1.15103        -1.56081        13.76175
   N       -0.67041        -2.26659        14.52828
   C       -3.19464        -0.74215        12.91252
   N       -4.33499        -0.73619        13.03951
   C        0.31125         0.39872        11.97524
   C        0.52985         1.62870        11.29535
   C       -0.74817         2.12878        10.77544
   O       -0.97870         3.16274        10.18847
   C        1.78116         2.18304        11.16293
   C        2.86148         1.48942        11.71513
   C        2.63273         0.26239        12.38637
   C        1.36769        -0.29604        12.52945
   S        4.11423        -0.41489        12.97956
   C        5.01005         0.92009        12.34013
   C        4.24204         1.83537        11.71024
   H       -5.32721         0.52648         5.56973
   H       -0.84561         0.77705         7.79213
   H       -3.39525        -3.85293         7.15784
   H       -5.12364        -2.23410         6.06894
   H       -2.04411         5.86495         6.01779
   H       -2.41513         7.33564         3.86958
   H       -9.81394         6.94346         2.37322
   H       -8.36417         3.65412         5.16534
   H      -12.36690         2.49675         6.01818
   H      -10.93911         7.53499         4.27103
   H      -13.32311         8.08037         4.27583
   H      -14.30361         2.84095         5.73207
   H      -16.64747         3.45187         5.66721
   H      -17.33919         5.74297         5.06491
   H      -15.62430         7.42988         4.51278
   H      -10.52339         0.88946         6.31632
   H       -8.01049         2.51524         6.98995
   H       -9.38622        -1.26487         6.82999
   H       -2.85277        -2.00868        10.61640
   H       -3.11221         1.95373         9.82058
   H        1.92140         3.11664        10.64206
   H        1.23766        -1.23631        13.04036
   H        6.07373         0.93503        12.47799
   H        4.62304         2.72822        11.24904
*
