# ORCA input file
# SCF done       -198.812897486513          0.000499116107
! CAM-B3LYP def2-SVP def2/J RIJCOSX Grid4 TightSCF
%maxcore 5000
%tddft
    Mode sTDDFT
    Ethresh 5.0
    maxcore 5000
end

%pal
  nprocs 6
  end
* xyz 0 1
   C       11.01748        -0.13973       -15.46788
   C       10.42441         0.35078       -16.59762
   F       10.20166        -0.47141       -17.63922
   C       10.03202         1.69080       -16.72021
   C       10.24863         2.54111       -15.67219
   C       10.85518         2.08833       -14.48228
   C       11.24946         0.72214       -14.37816
   C       11.86632         0.24609       -13.19773
   C       12.07608         1.10787       -12.15529
   C       11.66352         2.46859       -12.25887
   C       11.07425         2.95646       -13.39004
   C       11.95259         3.16681       -10.99287
   O       11.78488         4.33417       -10.72688
   C       12.43788         2.10094       -10.06844
   C       12.70758         0.91168       -10.85305
   C       13.57875        -0.09045       -10.53061
   C       13.84614        -1.19240       -11.36829
   N       14.08292        -2.11119       -12.01415
   C       14.40352        -0.06546        -9.38469
   N       15.17133        -0.03676        -8.53224
   C       12.39289         2.31475        -8.72928
   C       12.42490         1.34443        -7.69845
   S       12.46030         1.80224        -5.99630
   C       12.36359         0.08048        -5.66329
   N       12.30563        -0.63508        -6.75819
   N       12.34307         0.05089        -7.85603
   C       12.32436        -0.43657        -4.34212
   C       12.34484        -1.76676        -4.09762
   C       12.25088        -2.41081        -2.81840
   C       12.40584        -3.78137        -2.75988
   C       12.27302        -4.47034        -1.53925
   C       12.36551        -5.81916        -1.21610
   C       12.70194        -6.97266        -2.09729
   C       11.61889        -7.18876        -3.16875
   N       10.36439        -7.54025        -2.52496
   C       14.10266        -6.81108        -2.74481
   N       15.18997        -6.67279        -1.80451
   C       12.06118        -5.92992         0.19174
   C       11.95437        -7.00382         0.99427
   C       11.53819        -6.87799         2.42135
   C       11.33524        -5.46985         2.88849
   C       11.46812        -4.40459         2.07752
   C       11.80429        -4.57998         0.71401
   C       11.94379        -3.70424        -0.34068
   C       11.81336        -2.29738        -0.42316
   C       11.96849        -1.67631        -1.61714
   C       12.54295        -7.55354         3.31295
   C       12.30763        -8.69067         3.97168
   C       13.26133        -9.28490         4.86122
   S       12.97582       -10.83826         5.62766
   C       14.53295       -10.58461         6.42064
   N       15.07827        -9.45597         6.07416
   N       14.39166        -8.75158         5.21960
   C       15.04973       -11.54877         7.33181
   C       16.17898       -11.41772         8.06633
   C       17.09542       -10.33335         7.98227
   C       18.02371        -9.99944         8.91629
   C       19.18257        -9.12763         8.56348
   O       19.30696        -8.45436         7.56901
   C       20.15552        -9.32253         9.65679
   C       21.42504        -8.83343         9.77101
   C       22.19437        -9.16875        10.90740
   C       21.63275       -10.01863        11.90486
   C       22.40764       -10.35517        13.03187
   C       23.67567        -9.85729        13.14718
   C       24.24453        -9.01784        12.17931
   C       23.50736        -8.68343        11.07768
   F       24.41656       -10.17606        14.22321
   C       20.31326       -10.50726        11.76338
   C       19.58213       -10.15688        10.66025
   C       18.20658       -10.46143        10.27742
   C       17.22211       -10.89844        11.12396
   C       15.84596       -10.89093        10.81011
   N       14.71218       -10.85455        10.63637
   C       17.45651       -11.30144        12.45562
   N       17.59806       -11.66232        13.53581
   H       11.30947        -1.17658       -15.41033
   H        9.56862         2.02065       -17.63648
   H        9.95507         3.57764       -15.74217
   H       12.14858        -0.79329       -13.14163
   H       10.77591         3.99245       -13.44950
   H       12.21451         3.33715        -8.41594
   H       12.28195         0.29510        -3.54972
   H       12.43382        -2.41821        -4.95736
   H       12.62336        -4.32163        -3.66916
   H       12.73320        -7.87900        -1.47972
   H       11.97585        -7.95410        -3.87981
   H       11.45592        -6.26306        -3.72240
   H       10.42927        -8.45963        -2.10008
   H        9.61137        -7.56490        -3.20267
   H       14.11524        -5.93366        -3.39234
   H       14.30605        -7.69187        -3.36093
   H       15.07107        -5.83559        -1.24424
   H       15.22877        -7.46746        -1.17544
   H       12.14136        -8.01020         0.64487
   H       10.58432        -7.42001         2.52167
   H       11.07524        -5.35572         3.92950
   H       11.30400        -3.40499         2.45264
   H       11.58491        -1.73424         0.46976
   H       11.85896        -0.60562        -1.68089
   H       13.49509        -7.05639         3.42525
   H       11.36743        -9.21584         3.87014
   H       14.43763       -12.42915         7.46553
   H       16.41452       -12.21436         8.76071
   H       17.09427        -9.75292         7.06634
   H       21.83719        -8.19594         9.00326
   H       22.00047       -10.99563        13.79859
   H       25.24955        -8.65487        12.32496
   H       23.92390        -8.03845        10.31879
   H       19.91571       -11.15352        12.52993
*
