# ORCA input file
# SCF done       -215.996627781876          0.000850619345
! CAM-B3LYP def2-SVP def2/J RIJCOSX Grid4 TightSCF
%maxcore 5000
%tddft
    Mode sTDDFT
    Ethresh 5.0
    maxcore 5000
end

%pal
  nprocs 6
  end
* xyz 0 1
   C        1.85780        -6.11135         6.98773
   C        0.76470        -6.81099         6.55722
   F        0.01049        -7.47567         7.44996
   C        0.39091        -6.86607         5.20722
   C        1.14566        -6.19758         4.28417
   C        2.28304        -5.46022         4.67284
   C        2.64453        -5.41329         6.05124
   C        3.77184        -4.66718         6.46765
   C        4.51113        -3.99082         5.53520
   C        4.15681        -4.05892         4.15623
   C        3.07196        -4.76869         3.72742
   C        5.12721        -3.28349         3.36407
   O        5.14069        -3.12029         2.16257
   C        6.14819        -2.81528         4.33653
   C        5.67276        -3.11721         5.67201
   C        6.07329        -2.50325         6.82934
   C        7.03004        -1.46905         6.87242
   N        7.76395        -0.58925         6.94686
   C        5.50698        -2.76624         8.09369
   N        5.08346        -2.95588         9.14326
   C        7.32051        -2.28706         3.89452
   C        8.55915        -2.20326         4.58902
   C        9.06836        -3.10522         5.48331
   C       10.45434        -2.77945         5.72868
   C       11.28521        -3.45431         6.63423
   N       11.97023        -3.99068         7.38193
   C       10.80377        -1.69909         4.95873
   C        9.63941        -1.26061         4.24968
   C        9.49692        -0.07822         3.56787
   C       10.58950         0.77932         3.06035
   C       10.02858         1.97606         2.68251
   C        8.61074         1.89843         2.89027
   C        8.28385         0.65107         3.38211
   C        7.70489         2.91779         2.56592
   N        6.96499         3.74455         2.27158
   C       11.90220         0.31533         2.82467
   C       13.01391         1.08530         2.66845
   C       14.29828         0.53981         2.36639
   C       14.49555        -0.56127         1.54764
   O       15.68738        -1.24196         1.50830
   C       16.71136        -0.67182         2.20573
   C       16.54542         0.55526         2.91379
   C       17.69181         0.98217         3.50144
   S       18.98766        -0.10970         3.20201
   C       17.97869        -1.15177         2.27560
   O       15.33337         1.17477         3.00169
   C       13.53746        -1.04912         0.60872
   C       12.63918        -0.25452        -0.03141
   C       11.72354        -0.62473        -1.04947
   C       11.47875         0.19394        -2.12928
   C       10.60070        -0.47783        -3.03381
   C       10.16843         0.02263        -4.26719
   N        9.77012         0.44516        -5.25820
   C       10.20178        -1.67070        -2.46127
   C       10.80497        -1.78333        -1.17571
   C       10.33704        -2.59341        -0.15140
   C        8.95632        -3.14533        -0.06840
   C        8.88346        -3.90756         1.07197
   C       10.14821        -3.84483         1.73719
   C       10.99618        -3.00934         1.03102
   C       10.44696        -4.49972         2.93392
   N       10.67027        -5.01451         3.93701
   C        7.87860        -2.63501        -0.82653
   C        6.54539        -2.82768        -0.61872
   C        5.56543        -2.09871        -1.32742
   C        5.68101        -0.91596        -2.01119
   C        4.64054        -0.60228        -3.03640
   O        3.57536        -1.15867        -3.17169
   C        5.21897         0.47045        -3.86441
   C        4.74184         1.02243        -5.01746
   C        5.49674         2.02788        -5.66286
   C        6.73590         2.44520        -5.09482
   C        7.48838         3.43910        -5.74833
   C        7.01320         3.98528        -6.90826
   C        5.79535         3.59279        -7.48011
   C        5.05355         2.62600        -6.85975
   F        7.72678         4.93833        -7.53342
   C        7.19758         1.86638        -3.89043
   C        6.45142         0.89073        -3.28681
   C        6.67819         0.12745        -2.06348
   C        7.56714         0.49795        -1.07952
   C        7.68825        -0.12142         0.17187
   N        7.88321        -0.57243         1.21192
   C        8.52109         1.52736        -1.18607
   N        9.37614         2.29514        -1.18963
   H        2.11323        -6.08780         8.03561
   H       -0.48249        -7.43337         4.92710
   H        0.87770        -6.22496         3.23862
   H        4.02624        -4.65463         7.51566
   H        2.81486        -4.79865         2.67902
   H        7.33981        -1.98359         2.85064
   H        8.57387        -3.96500         5.89616
   H       11.74480        -1.18403         4.99138
   H       10.52829         2.81334         2.23282
   H        7.31005         0.32912         3.69598
   H       12.00955        -0.75829         2.74169
   H       12.99341         2.13214         2.93583
   H       17.84065         1.86390         4.08884
   H       18.36766        -2.04681         1.83718
   H       13.69885        -2.06624         0.27735
   H       12.69484         0.81259         0.15329
   H       11.92917         1.15070        -2.31196
   H        9.60712        -2.42343        -2.94347
   H        8.02314        -4.42714         1.44823
   H       12.00972        -2.79690         1.30273
   H        8.14553        -1.94865        -1.61656
   H        6.19182        -3.55929         0.09123
   H        4.57870        -2.54780        -1.39219
   H        3.80146         0.69497        -5.43492
   H        8.43233         3.76069        -5.33799
   H        5.47097         4.05916        -8.39690
   H        4.11352         2.30544        -7.28317
   H        8.14064         2.19844        -3.48701
*
