# ORCA input file
# SCF done       -190.956297260072          0.000600836503
! CAM-B3LYP def2-SVP def2/J RIJCOSX Grid4 TightSCF
%maxcore 5000
%tddft
    Mode sTDDFT
    Ethresh 5.0
    maxcore 5000
end

%pal
  nprocs 6
  end
* xyz 0 1
   C       -9.87805         1.28506         5.80176
   C      -11.08356         1.66917         5.23510
   C      -11.63449         0.96226         4.17415
   C      -10.99651        -0.15085         3.64509
   C       -9.79181        -0.54620         4.20136
   C       -9.23013         0.17326         5.28364
   C       -7.95363        -0.42318         5.63247
   C       -7.17789        -0.09967         6.71139
   C       -7.57609         0.79370         7.73277
   N       -7.82778         1.47199         8.62275
   C       -5.89116        -0.59929         7.00229
   N       -4.82092        -0.89055         7.30188
   C       -7.66850        -1.43365         4.61114
   C       -8.91617        -1.66478         3.88455
   C       -9.27704        -2.81116         3.24034
   C       -8.51066        -3.99921         3.23863
   N       -8.00206        -5.02546         3.31045
   C      -10.53265        -2.99363         2.61930
   N      -11.53728        -3.18700         2.10171
   C       -6.42195        -1.91656         4.35556
   C       -5.96986        -2.62853         3.21438
   N       -6.67128        -2.75857         2.09661
   C       -5.87958        -3.42891         1.23709
   C       -4.57386        -3.73308         1.83799
   C       -3.72635        -4.48244         0.88980
   O       -2.58859        -4.86170         1.03887
   C       -4.61404        -4.63002        -0.28059
   C       -5.91021        -3.95291        -0.03212
   N       -6.72759        -4.07521        -1.10407
   C       -6.04886        -4.78206        -1.97376
   C       -4.72100        -5.16461        -1.52168
   C       -4.61426        -3.22440         3.11005
   C       -3.65216        -3.19280         4.15295
   C       -2.34978        -3.54986         4.06354
   C       -1.50420        -3.30627         5.19855
   N       -2.06867        -2.74390         6.26220
   N       -1.43096        -2.36824         7.30485
   C       -0.11066        -2.42115         7.42848
   C        0.63037        -3.02658         6.37841
   C       -0.10215        -3.52273         5.23900
   N        0.70269        -4.04931         4.32273
   S        2.21684        -3.90085         4.82659
   N        1.93992        -3.18366         6.23116
   C        0.46901        -1.79509         8.58602
   N        1.63428        -2.13388         9.08465
   C        1.86810        -1.26949        10.10069
   C        0.76956        -0.29748        10.23338
   C        1.05396         0.66844        11.31096
   O        0.38082         1.60261        11.67925
   C        2.36902         0.21339        11.80361
   C        2.82538        -0.97209        11.03419
   N        4.04484        -1.37901        11.46769
   C        4.36600        -0.54555        12.42260
   C        3.36687         0.48010        12.67999
   C       -0.14916        -0.62590         9.27631
   C       -1.33431         0.01966         8.82131
   C       -1.64817         1.31295         9.06261
   C       -2.71925         1.97545         8.38898
   C       -3.07039         1.79592         7.08270
   C       -4.34050         2.21288         6.49203
   C       -5.26029         3.07787         7.01954
   C       -5.09857         3.82807         8.20571
   N       -5.02495         4.49304         9.13746
   C       -6.50627         3.35678         6.41983
   N       -7.54152         3.59364         5.98306
   C       -4.46934         1.50916         5.22155
   C       -3.28809         0.77168         4.98213
   C       -3.14395         0.02822         3.82053
   C       -4.17833         0.02437         2.89913
   C       -5.34150         0.74547         3.13210
   C       -5.49735         1.49310         4.28919
   C       -2.34711         1.04270         6.05495
   C       -0.99674         0.83709         5.96883
   C       -0.37493         0.01607         5.00961
   N        0.19826        -0.70520         4.32264
   C       -0.02573         1.41973         6.81399
   N        0.84068         1.91337         7.38187
   H       -9.45274         1.85806         6.60919
   H      -11.59415         2.53701         5.62213
   H      -12.57160         1.28530         3.74738
   H      -11.42667        -0.68119         2.81111
   H       -5.64426        -1.65880         5.06004
   H       -6.48038        -5.02904        -2.92813
   H       -4.01511        -5.74280        -2.08400
   H       -3.97587        -2.80902         5.11205
   H       -1.90689        -3.96355         3.16950
   H        5.30097        -0.65155        12.94515
   H        3.44666         1.25570        13.41557
   H       -1.97064        -0.57234         8.17424
   H       -1.10482         1.87503         9.81330
   H       -3.30021         2.66601         8.98635
   H       -2.24727        -0.53640         3.62619
   H       -4.07255        -0.53809         1.98403
   H       -6.13286         0.73321         2.39782
   H       -6.40093         2.06100         4.43962
*
