# ORCA input file
# SCF done       -221.533222528092          0.000764855219
! CAM-B3LYP def2-SVP def2/J RIJCOSX Grid4 TightSCF
%maxcore 5000
%tddft
    Mode sTDDFT
    Ethresh 5.0
    maxcore 5000
end

%pal
  nprocs 6
  end
* xyz 0 1
   C        0.68067         1.88101        -6.32524
   C        1.10708         0.62428        -5.99182
   C        1.85726        -0.21002        -6.84787
   N        2.45182        -0.93270        -7.51139
   C        0.87305         0.02578        -4.73537
   N        0.72863        -0.48012        -3.71527
   C        0.98223         2.60249        -7.55257
   C        0.49522         3.93786        -7.43165
   C        0.63985         4.85011        -8.43877
   C        1.28609         4.46173        -9.63287
   C        1.77028         3.12689        -9.76293
   C        1.60905         2.20478        -8.70398
   C        2.40466         2.74827       -10.96338
   C        2.55443         3.64345       -11.98779
   C        2.07811         4.95683       -11.85884
   C        1.45859         5.35801       -10.70615
   C       -0.16710         4.10556        -6.13311
   O       -0.75061         5.08780        -5.72152
   C       -0.08024         2.77443        -5.46823
   C       -0.79042         2.47012        -4.35280
   C       -1.42608         3.46776        -3.54747
   C       -2.71508         3.46225        -3.11226
   C       -3.00120         4.75155        -2.51269
   C       -4.23516         5.10253        -1.94486
   N       -5.24715         5.38939        -1.48734
   C       -1.88975         5.54517        -2.59287
   C       -0.82901         4.77134        -3.17974
   C        0.50842         5.06184        -3.13113
   C        1.11895         6.38634        -2.90713
   C        2.46375         6.19961        -2.77159
   C        2.75164         4.78588        -2.90976
   C        1.58655         4.11146        -3.15807
   C        4.03438         4.22687        -2.81845
   N        5.08792         3.77672        -2.75689
   C        0.41967         7.62985        -2.98462
   C        0.83975         8.77145        -2.39804
   C        0.13703        10.00668        -2.49614
   S       -1.26979        10.16514        -3.50570
   C       -1.51939        11.81088        -3.02693
   C       -0.57387        12.20390        -2.09902
   C        0.38846        11.19694        -1.83306
   C        1.58448        11.36889        -0.94446
   F        2.68610        10.80800        -1.48183
   F        1.90569        12.64245        -0.72273
   F        1.42099        10.78193         0.25392
   C       -0.66743        13.47753        -1.30942
   F       -1.89439        14.02493        -1.36754
   F       -0.43626        13.26407        -0.00891
   F        0.18021        14.43840        -1.71127
   C       -2.60815        12.55550        -3.59877
   C       -3.88837        12.12681        -3.74607
   C       -4.68813        13.23760        -4.23228
   C       -6.04949        13.14121        -4.55529
   N       -7.15945        13.04669        -4.82878
   C       -3.89913        14.34960        -4.33692
   C       -2.55017        13.96962        -4.01946
   C       -1.40945        14.68789        -4.26342
   C       -1.27755        16.16053        -4.38979
   C        0.00808        16.41801        -4.78422
   C        0.71025        15.16443        -4.92358
   C       -0.12146        14.13506        -4.56458
   C        2.03486        15.03513        -5.36715
   N        3.11359        14.92682        -5.74217
   C       -2.26085        17.09408        -3.97119
   C       -2.16864        18.44123        -4.14805
   C       -3.16673        19.31650        -3.66653
   C       -3.13084        20.67789        -3.78245
   C       -4.12021        21.61929        -3.29064
   C       -5.33786        21.31759        -2.73558
   C       -6.25928        22.28339        -2.27801
   N       -7.05118        23.01519        -1.88427
   C       -5.86046        20.01938        -2.55923
   N       -6.35730        18.99684        -2.39506
   C       -3.60625        22.96482        -3.52042
   C       -2.35074        22.86659        -4.18626
   C       -2.01445        21.44971        -4.39556
   O       -1.02779        21.01228        -4.95011
   C       -1.63001        23.97202        -4.53656
   C       -2.13990        25.25290        -4.22909
   C       -3.39406        25.36061        -3.56098
   C       -4.11833        24.19772        -3.21209
   C       -3.89351        26.64350        -3.25744
   C       -3.18936        27.76682        -3.59648
   C       -1.95446        27.65948        -4.25362
   C       -1.44088        26.42927        -4.56349
   H        0.26321         5.85595        -8.32592
   H        1.97812         1.19960        -8.83342
   H        2.77070         1.73665       -11.05759
   H        3.04104         3.34394       -12.90359
   H        2.20403         5.64916       -12.67749
   H        1.08967         6.36773       -10.60172
   H       -0.95487         1.43691        -4.07342
   H       -3.43973         2.67969        -3.24044
   H       -1.78307         6.51902        -2.15564
   H        3.21520         6.95467        -2.63693
   H        1.47951         3.04677        -3.24221
   H       -0.49136         7.63605        -3.56990
   H        1.72538         8.75721        -1.78191
   H       -4.27882        11.15486        -3.50872
   H       -4.20368        15.29935        -4.73149
   H        0.46359        17.37827        -4.93259
   H        0.11397        13.08985        -4.62330
   H       -3.12092        16.70073        -3.44517
   H       -1.32806        18.87153        -4.67001
   H       -4.00424        18.85764        -3.15622
   H       -0.68078        23.86925        -5.04126
   H       -5.06239        24.31478        -2.70435
   H       -4.84472        26.72116        -2.75164
   H       -3.58032        28.74495        -3.35979
   H       -1.41209        28.55632        -4.51293
   H       -0.49056        26.34031        -5.06923
*
