# ORCA input file
# SCF done       -160.982105813199          0.000958358000
! CAM-B3LYP def2-SVP def2/J RIJCOSX Grid4 TightSCF
%maxcore 5000
%tddft
    Mode sTDDFT
    Ethresh 5.0
    maxcore 5000
end

%pal
  nprocs 6
  end
* xyz 0 1
   C       -4.62998        12.25855        -7.86808
   S       -4.78203        11.43315        -9.50774
   C       -4.24879        10.19719        -8.41053
   C       -4.20578        10.94366        -7.28510
   C       -3.78941        10.63128        -5.93887
   O       -3.33219         9.57859        -5.55836
   O       -3.97952        11.69113        -5.10488
   C       -3.52170        11.50596        -3.78450
   C       -2.03502        11.38583        -3.73777
   O       -1.45226        10.98592        -2.58556
   C       -1.07242        11.60052        -4.68111
   C       -0.81324        11.98060        -6.07612
   O       -1.55853        12.31764        -6.95958
   N        0.56762        11.87998        -6.19294
   C        1.24530        11.48243        -5.03797
   O        2.43654        11.34173        -4.94785
   C        0.17547        11.30448        -4.05801
   C       -0.09885        10.93039        -2.76392
   C        0.78936        10.54147        -1.71771
   C        0.37778        10.16207        -0.49139
   C        1.19716         9.77147         0.62340
   C        2.45211         9.29159         0.62504
   C        3.27939         9.01878        -0.58882
   C        3.14231         9.03340         1.94666
   N        4.05347        10.11607         2.24788
   C        3.68728        11.21837         2.92400
   C        4.40696        12.37499         2.96110
   C        4.02911        13.48768         3.72626
   C        4.70384        14.68332         3.74807
   C        4.37013        15.84507         4.48042
   C        5.21917        16.89390         4.28405
   C        6.27078        16.61558         3.38434
   S        6.15793        14.97968         2.79913
   C        7.28254        17.46786         2.96638
   C        7.49368        18.81045         3.32829
   C        8.58290        19.37621         2.72502
   C        9.28216        18.50616         1.86435
   S        8.51257        16.93836         1.83769
   C       10.41882        18.80536         1.12896
   C       11.05736        17.88298         0.31652
   C       12.19720        18.13319        -0.43180
   C       12.89443        17.19621        -1.26658
   C       12.57601        15.87394        -1.49314
   C       13.31939        15.01295        -2.32136
   N       13.87891        14.25442        -2.97977
   C       11.47949        15.18236        -0.94503
   N       10.61938        14.53106        -0.54577
   C       14.04050        17.89039        -1.85570
   C       14.04440        19.22725        -1.39154
   C       12.89126        19.42824        -0.48437
   O       12.60564        20.46597         0.08551
   C       14.99904        20.13929        -1.76431
   C       16.00389        19.71150        -2.64028
   C       15.99204        18.37544        -3.09858
   C       15.02333        17.45184        -2.72094
   S       17.32329        18.05561        -4.17124
   C       17.86833        19.70165        -3.98883
   C       17.09643        20.45305        -3.16981
  Br       19.40765        20.27329        -4.89842
   H       -5.57415        12.66318        -7.51570
   H       -3.84928        13.01354        -7.86874
   H       -4.03864         9.16987        -8.63423
   H       -3.96309        10.60004        -3.34576
   H       -3.86043        12.38345        -3.22447
   H        1.04977        12.07494        -7.05925
   H        1.82923        10.61070        -1.98960
   H       -0.68697        10.18062        -0.29483
   H        0.69669         9.85442         1.58123
   H        2.65897         8.65050        -1.40260
   H        4.04464         8.27622        -0.36998
   H        3.78053         9.92348        -0.93476
   H        3.71468         8.10186         1.90613
   H        2.41612         8.96339         2.75919
   H        4.86047        10.19907         1.64483
   H        2.77341        11.12855         3.49633
   H        5.31077        12.45548         2.37219
   H        3.13770        13.41073         4.33559
   H        3.51215        15.87164         5.12928
   H        5.11674        17.85298         4.75862
   H        6.84709        19.32769         4.01447
   H        8.90344        20.39179         2.87488
   H       10.81797        19.80630         1.20449
   H       10.62686        16.88978         0.27199
   H       14.97395        21.15192        -1.39306
   H       15.06014        16.44435        -3.09986
   H       17.28690        21.48690        -2.94596
*
