# ORCA input file
# SCF done       -163.819289181072          0.000874210612
! CAM-B3LYP def2-SVP def2/J RIJCOSX Grid4 TightSCF
%maxcore 5000
%tddft
    Mode sTDDFT
    Ethresh 5.0
    maxcore 5000
end

%pal
  nprocs 6
  end
* xyz 0 1
   C        4.50978         0.43908        -7.30656
   C        4.20168         0.96367        -8.52147
   S        3.23807         2.38865        -8.36154
   C        3.24826         2.27623        -6.61653
  Cl        2.44476         3.41801        -5.65672
   C        3.96383         1.18983        -6.21179
   C        4.35001         0.55350        -4.95316
   O        4.09178         0.89484        -3.80733
   C        5.15495        -0.61552        -5.34421
   C        5.25660        -0.69131        -6.78321
   C        5.90574        -1.62859        -7.54619
   C        5.89456        -1.56490        -8.95384
   N        5.89089        -1.52504       -10.10082
   C        6.63230        -2.71804        -7.03249
   N        7.24075        -3.61325        -6.64747
   C        5.70745        -1.45874        -4.41278
   N        5.51686        -1.26493        -3.10117
   C        5.98159        -2.05528        -2.08966
   S        6.30706        -1.32936        -0.54608
   C        6.90853        -2.85268         0.02043
   N        7.35975        -2.93104         1.34543
   O        7.79065        -4.00094         1.73224
   O        7.28650        -1.91391         2.01166
   C        6.85147        -3.84825        -0.91732
   C        6.30068        -3.41742        -2.14148
   C        5.99735        -4.27137        -3.25753
   C        6.62304        -5.43161        -3.54676
   C        6.28774        -6.24477        -4.66067
   S        4.95883        -5.81109        -5.69515
   C        5.29138        -7.13897        -6.72679
   C        6.36213        -7.87979        -6.34038
   C        6.77235        -9.10564        -7.08669
   C        6.95664        -7.37828        -5.13558
   C        8.06796        -7.94861        -4.44022
   C        9.04985        -8.72152        -4.97434
   C       10.10078        -9.28094        -4.21705
   C       11.10408       -10.01400        -4.78967
   C       12.16274       -10.60603        -4.09285
   C       13.16931       -11.31723        -4.70745
   C       14.27391       -11.95719        -4.09930
   C       15.11513       -12.57548        -4.97744
   C       14.71777       -12.45220        -6.32614
   S       13.23778       -11.53550        -6.44811
   C       15.34326       -12.93677        -7.46236
   C       16.53371       -13.68584        -7.56799
   C       16.87700       -13.98779        -8.85118
   C       15.97525       -13.49302        -9.82976
   S       14.66647       -12.63277        -9.04566
   C       16.12105       -13.65353       -11.18515
   C       15.27545       -13.19027       -12.21069
   S       15.73670       -13.46231       -13.88794
   C       14.34941       -12.68559       -14.53970
   C       13.54370       -12.22705       -13.52551
   C       14.06685       -12.51248       -12.22420
   O       13.23065       -12.05092       -11.26985
   C       12.19493       -11.47776       -11.93482
   N       11.15617       -10.90658       -11.16589
   O       10.23553       -10.40461       -11.78647
   O       11.24502       -10.94754        -9.95679
   C       12.31672       -11.54622       -13.29742
   H        4.47139         0.61867        -9.49986
   H        6.33351        -2.28905        -4.70707
   H        5.00438        -0.39930        -2.87342
   H        7.16228        -4.85518        -0.70785
   H        5.19028        -3.94751        -3.90179
   H        7.46022        -5.74987        -2.94279
   H        4.65934        -7.30568        -7.57735
   H        5.95876        -9.43377        -7.72984
   H        7.02425        -9.90945        -6.39801
   H        7.63575        -8.90457        -7.71995
   H        8.13538        -7.71823        -3.38408
   H        9.07782        -8.90799        -6.03594
   H       10.10281        -9.12415        -3.14557
   H       11.08947       -10.15256        -5.86436
   H       12.20288       -10.50532        -3.01595
   H       14.41411       -11.94132        -3.03259
   H       16.00408       -13.10930        -4.69250
   H       17.10235       -13.97979        -6.70393
   H       17.75053       -14.54918        -9.13216
   H       16.99770       -14.19336       -11.51759
   H       14.21651       -12.61767       -15.59869
   H       11.62088       -11.16196       -14.01381
*
