# ORCA input file
# SCF done       -162.641550449796          0.001268866297
! CAM-B3LYP def2-SVP def2/J RIJCOSX Grid4 TightSCF
%maxcore 5000
%tddft
    Mode sTDDFT
    Ethresh 5.0
    maxcore 5000
end

%pal
  nprocs 6
  end
* xyz 0 1
   C       -9.45745        -3.50767         2.66561
   C      -10.31442        -2.75738         3.43723
   C       -9.89610        -1.91510         4.48267
   N       -9.60549        -1.22997         5.35895
   C      -11.71538        -2.81867         3.32582
   N      -12.86379        -2.83909         3.28984
   C       -8.00414        -3.52523         2.77123
   C       -7.50499        -4.53475         1.91345
   C       -6.16212        -4.73476         1.71422
   C       -5.27063        -3.93509         2.43712
   C       -5.78026        -2.98475         3.35117
   C       -7.13915        -2.74977         3.51871
   S       -4.50257        -2.16879         4.20229
   C       -3.31942        -3.09141         3.31267
   C       -3.84910        -3.95793         2.42007
  Br       -1.49695        -2.85194         3.66999
   C       -8.63895        -5.28192         1.33016
   O       -8.56166        -6.27052         0.62919
   C       -9.84598        -4.51830         1.71998
   C      -11.07207        -4.71299         1.12920
   C      -11.44039        -5.95575         0.55615
   S      -12.21154        -6.10292        -0.99650
   C      -12.07587        -7.81572        -0.92500
   C      -11.51810        -8.27450         0.22871
   C      -11.31283        -9.71224         0.56526
   C      -11.18510        -7.21202         1.11288
   C      -10.76089        -7.32785         2.47865
   C      -11.23593        -6.47786         3.42792
   C      -10.65044        -6.24063         4.68676
   C      -11.14279        -5.29043         5.54612
   C      -10.45918        -4.66250         6.59805
   C       -9.09461        -4.63521         6.78972
   C       -8.39160        -3.89390         7.77012
   C       -7.03149        -3.96145         7.66981
   C       -6.58610        -4.77055         6.60717
   S       -7.95006        -5.43510         5.73493
   C       -5.31749        -5.11796         6.18363
   C       -4.03630        -4.80655         6.68517
   C       -3.01848        -5.35229         5.96156
   C       -3.43934        -6.11073         4.83449
   S       -5.18767        -6.13623         4.77213
   C       -2.62572        -6.62274         3.86066
   C       -2.95900        -7.26485         2.64273
   S       -1.79243        -7.01218         1.35687
   C       -2.73509        -7.93103         0.21800
   C       -3.86449        -8.44658         0.82949
   C       -3.99839        -8.06802         2.18279
   C       -5.04250        -8.74520         2.99897
   S       -6.72735        -7.98545         2.85148
   C       -5.08951       -10.21176         2.57217
   C       -5.54981       -10.34386         1.12438
   C       -4.80471        -9.40008         0.15775
   C       -2.21867        -8.06334        -1.10677
   C       -2.92549        -8.34876        -2.21982
   C       -2.38383        -8.49883        -3.54568
   C       -1.17506        -8.95643        -3.90542
   C       -0.12478        -9.45444        -2.96524
   C       -0.80380        -9.05165        -5.36288
   N        0.49926        -8.46781        -5.58483
   C        1.26527        -8.83348        -6.66727
   C        2.21672        -8.08735        -7.21670
   H       -5.79878        -5.48819         1.03317
   H       -7.48190        -1.99128         4.20319
   H       -3.26400        -4.59451         1.78217
   H      -11.76654        -3.88520         1.04234
   H      -12.42918        -8.39719        -1.75474
   H      -11.60205       -10.34787        -0.26767
   H      -11.90560        -9.98186         1.43885
   H      -10.26505        -9.89087         0.80231
   H      -10.02592        -8.08038         2.72791
   H      -12.07445        -5.84072         3.16660
   H       -9.74137        -6.77719         4.91468
   H      -12.14757        -4.92788         5.35930
   H      -11.04053        -4.03851         7.26446
   H       -8.91553        -3.31871         8.51276
   H       -6.34676        -3.44600         8.31961
   H       -3.90168        -4.18801         7.55461
   H       -1.97396        -5.21833         6.18225
   H       -1.57195        -6.39109         3.96885
   H       -4.82384        -8.66384         4.06478
   H       -6.72711        -7.80274         1.53562
   H       -5.77236       -10.76111         3.22153
   H       -4.08772       -10.63288         2.69344
   H       -5.40983       -11.37646         0.80264
   H       -6.61986       -10.13528         1.08509
   H       -5.53991        -8.82739        -0.41722
   H       -4.22623        -9.98614        -0.56044
   H       -1.16620        -7.83685        -1.19680
   H       -4.00306        -8.41138        -2.16206
   H       -3.08054        -8.25013        -4.33876
   H       -0.57263        -9.86905        -2.06460
   H        0.54826        -8.64818        -2.67487
   H        0.47746       -10.21600        -3.45559
   H       -1.58306        -8.58084        -5.98403
   H       -0.74320       -10.10847        -5.65016
   H        0.55986        -7.48816        -5.34274
   H        1.07463        -9.83948        -7.01896
   H        2.41880        -7.08603        -6.87671
   H        2.83309        -8.46557        -8.00957
*
