# ORCA input file
# SCF done       -195.982221888742          0.000617518507
! CAM-B3LYP def2-SVP def2/J RIJCOSX Grid4 TightSCF
%maxcore 5000
%tddft
    Mode sTDDFT
    Ethresh 5.0
    maxcore 5000
end

%pal
  nprocs 6
  end
* xyz 0 1
   C       -5.97108        -5.71327       -12.97143
   C       -6.06214        -6.53920       -14.05702
   F       -6.39153        -6.04134       -15.25486
   C       -5.81191        -7.92047       -13.93057
   F       -5.90816        -8.70561       -15.01030
   C       -5.47421        -8.45699       -12.71920
   C       -5.37236        -7.63196       -11.58278
   C       -5.62473        -6.23522       -11.70939
   C       -5.52522        -5.38676       -10.58209
   C       -5.18609        -5.91892        -9.36708
   C       -4.93712        -7.31779        -9.24931
   C       -5.02349        -8.16050       -10.31960
   C       -4.59599        -7.62254        -7.85262
   O       -4.32733        -8.71229        -7.36393
   C       -4.63088        -6.34189        -7.13838
   C       -4.99215        -5.29268        -8.06004
   C       -5.15529        -3.96011        -7.78032
   C       -5.61712        -3.00240        -8.70665
   N       -6.01512        -2.17937        -9.40070
   C       -4.90331        -3.36786        -6.52747
   N       -4.71125        -2.82731        -5.53229
   C       -4.38564        -6.26075        -5.79055
   N       -4.12718        -7.35986        -5.06975
   C       -4.01623        -7.42481        -3.70941
   S       -3.03449        -8.65959        -2.99188
   C       -3.37544        -7.99332        -1.42859
   N       -2.81703        -8.63884        -0.31131
   O       -3.05746        -8.17764         0.78514
   O       -2.13144        -9.61846        -0.53819
   C       -4.18834        -6.89278        -1.46293
   C       -4.58551        -6.55742        -2.77228
   C       -5.51985        -5.52136        -3.13554
   C       -5.70236        -4.36137        -2.48210
   C       -6.54825        -3.31763        -2.98676
   N       -6.57142        -2.18174        -2.30203
   N       -7.17489        -1.11696        -2.68985
   C       -7.78048        -1.00342        -3.88007
   C       -7.86265        -2.16862        -4.69921
   C       -7.26859        -3.38204        -4.21577
   N       -7.44585        -4.39325        -5.06264
   S       -8.26823        -3.86327        -6.34946
   N       -8.43482        -2.33067        -5.88180
   C       -8.26773         0.28928        -4.17924
   C       -8.95502         0.76855        -5.26430
   C       -9.34127         2.13527        -5.38374
   C      -10.03303         2.43051        -6.51418
   C      -10.24187         1.30683        -7.34876
   S       -9.50618        -0.12366        -6.66530
   C      -10.93845         1.26688        -8.54346
   C      -11.61045         2.33012        -9.19029
   C      -12.22332         1.97122       -10.35122
   C      -12.06013         0.60495       -10.68958
   S      -11.13371        -0.20976        -9.45190
   C      -12.60345        -0.10059       -11.74342
   C      -13.21181         0.43237       -12.88436
   C      -12.93876         1.63583       -13.50332
   C      -13.68149         2.18315       -14.61327
   C      -14.97194         1.86039       -14.95732
   C      -15.66693         2.43576       -16.03884
   N      -16.27424         2.86802       -16.91254
   C      -15.77936         0.95195       -14.24312
   N      -16.50010         0.25004       -13.68867
   C      -12.86099         3.21203       -15.24234
   C      -11.66101         3.34011       -14.50152
   C      -11.67526         2.39151       -13.36780
   O      -10.78715         2.24218       -12.55164
   C      -10.67272         4.23017       -14.84233
   C      -10.88052         5.03524       -15.96808
   C      -12.08211         4.89928       -16.70212
   C      -13.08211         3.99696       -16.35697
   S      -12.12971         5.98558       -18.05725
   C      -10.55723         6.60156       -17.62338
   C      -10.02198         6.02417       -16.52173
  Br       -9.77082         7.94843       -18.66550
   H       -6.16598        -4.65841       -13.08602
   H       -5.28568        -9.51609       -12.63919
   H       -5.71736        -4.33387       -10.71152
   H       -4.82723        -9.21565       -10.20536
   H       -4.37810        -5.31287        -5.27134
   H       -4.02915        -8.22007        -5.63309
   H       -4.50938        -6.37554        -0.57737
   H       -6.10369        -5.70167        -4.02882
   H       -5.14884        -4.10873        -1.59006
   H       -8.03905         1.00865        -3.40210
   H       -9.08739         2.84910        -4.62021
   H      -10.39650         3.41064        -6.76462
   H      -11.63078         3.32362        -8.78013
   H      -12.82215         2.63308       -10.94933
   H      -12.59854        -1.17980       -11.65829
   H      -13.91602        -0.22487       -13.38212
   H       -9.76813         4.30455       -14.25939
   H      -13.97795         3.92431       -16.95084
   H       -9.06113         6.28246       -16.11547
*
