# ORCA input file
# SCF done       -211.368068277716          0.000853513560
! CAM-B3LYP def2-SVP def2/J RIJCOSX Grid4 TightSCF
%maxcore 5000
%tddft
    Mode sTDDFT
    Ethresh 5.0
    maxcore 5000
end

%pal
  nprocs 6
  end
* xyz 0 1
   C      -15.32109        -3.50793         0.33207
   C      -15.59177        -2.18460         0.54519
   F      -16.73723        -1.81983         1.13383
   C      -14.67390        -1.19054         0.15023
   F      -14.96774         0.09635         0.37255
   C      -13.49667        -1.53326        -0.45476
   C      -13.19227        -2.88765        -0.69087
   C      -14.11804        -3.89440        -0.29016
   C      -13.83137        -5.26197        -0.51551
   C      -12.65876        -5.61118        -1.12881
   C      -11.74359        -4.59509        -1.53332
   C      -11.98745        -3.26752        -1.32248
   C      -10.59128        -5.23117        -2.17048
   O       -9.60296        -4.67506        -2.64911
   C      -10.82956        -6.67271        -2.13066
   C      -12.10169        -6.91562        -1.48764
   C      -12.69011        -8.13063        -1.25373
   C      -12.11758        -9.36658        -1.61754
   N      -11.68414       -10.39161        -1.89869
   C      -13.93975        -8.29586        -0.62195
   N      -14.95135        -8.48558        -0.11438
   C       -9.91952        -7.56928        -2.64232
   N       -8.79534        -7.13121        -3.22269
   C       -7.80160        -7.88136        -3.75938
   S       -7.93184        -9.61716        -3.77494
   C       -6.41613        -9.70593        -4.60853
   N       -5.91883       -10.97795        -4.93957
   O       -4.85504       -11.02968        -5.52448
   O       -6.59834       -11.93182        -4.61124
   C       -5.85723        -8.48606        -4.85671
   C       -6.62769        -7.40393        -4.36813
   C       -6.15875        -6.06348        -4.54826
   C       -6.61323        -4.89878        -4.01833
   C       -6.04477        -3.63624        -4.28964
   S       -4.65390        -3.42173        -5.29761
   C       -4.58581        -1.70158        -5.02740
   C       -5.67159        -1.29440        -4.21559
   C       -6.48856        -2.38961        -3.80227
   C       -7.63708        -2.16202        -3.02342
   C       -7.96253        -0.87890        -2.68702
   F       -9.07189        -0.64416        -1.96356
   C       -7.17468         0.20776        -3.11450
   F       -7.55054         1.45516        -2.79425
   C       -6.04928         0.01351        -3.86946
   C       -3.53247        -0.99846        -5.62028
   C       -3.07360         0.25918        -5.30133
   C       -2.03946         0.88072        -5.99497
   C       -1.48513         2.09814        -5.64785
   C       -0.47038         2.79371        -6.33646
   C       -0.10077         3.97028        -5.74832
   C       -0.79691         4.25142        -4.55652
   S       -1.95857         2.99605        -4.21825
   C       -0.60976         5.32791        -3.69890
   C        0.26293         6.42087        -3.86775
   C        0.25397         7.29610        -2.81935
   C       -0.61873         6.92998        -1.77229
   S       -1.45003         5.44675        -2.17226
   C       -0.76759         7.58050        -0.56153
   C       -1.61859         7.14657         0.44830
   C       -1.72099         7.63082         1.73488
   C       -2.94241         7.34540         2.52363
   O       -3.82750         6.56855         2.23544
   C       -2.86646         8.23531         3.69932
   C       -3.77552         8.41851         4.69960
   C       -3.49093         9.34408         5.72934
   C       -2.26673        10.07179         5.69235
   C       -1.98916        10.99427         6.71919
   C       -2.89463        11.16716         7.72896
   C       -4.10269        10.46004         7.78443
   C       -4.38943         9.56309         6.79294
   F       -2.62887        12.04601         8.71368
   C       -1.34152         9.85868         4.64246
   C       -1.63275         8.94686         3.66567
   C       -0.86340         8.48318         2.50912
   C        0.49110         8.66957         2.34494
   C        1.28881         7.96689         1.42140
   N        2.00117         7.39026         0.72809
   C        1.27377         9.50553         3.16449
   N        1.96055        10.19198         3.77863
   H      -16.03497        -4.25501         0.64209
   H      -12.80161        -0.76296        -0.75052
   H      -14.55135        -5.99786        -0.19615
   H      -11.27637        -2.51578        -1.63026
   H      -10.07082        -8.63946        -2.59242
   H       -8.72320        -6.10337        -3.26187
   H       -4.91642        -8.37547        -5.36548
   H       -5.29255        -5.99802        -5.19607
   H       -7.43341        -4.86535        -3.32164
   H       -8.28216        -2.96801        -2.71638
   H       -5.49897         0.87336        -4.20902
   H       -2.98596        -1.54298        -6.38165
   H       -3.48538         0.78784        -4.45464
   H       -1.63546         0.39057        -6.87127
   H       -0.04112         2.40820        -7.24408
   H        0.65933         4.62521        -6.13328
   H        0.86958         6.53897        -4.74729
   H        0.86130         8.18119        -2.75861
   H       -0.17771         8.47463        -0.42025
   H       -2.34235         6.37678         0.19507
   H       -4.70022         7.86124         4.70888
   H       -1.06688        11.55387         6.71071
   H       -4.77826        10.63753         8.60611
   H       -5.31392         9.00590         6.81361
   H       -0.42582        10.42814         4.63953
*
