# ORCA input file
# SCF done       -152.275496982815          0.000256148471
! CAM-B3LYP def2-SVP def2/J RIJCOSX Grid4 TightSCF
%maxcore 5000
%tddft
    Mode sTDDFT
    Ethresh 5.0
    maxcore 5000
end

%pal
  nprocs 6
  end
* xyz 0 1
   C       -0.40938        -5.31707         1.25518
   C        0.69628        -4.77307         1.77983
   C        0.82487        -3.50071         2.43229
   C        2.06874        -3.22285         2.87689
   C        3.02470        -4.24579         2.61752
   S        2.27415        -5.57602         1.75675
   C        4.33849        -4.27076         3.00531
   C        5.02530        -3.35189         3.83889
   C        6.26687        -3.75460         4.20216
   C        6.67744        -5.00108         3.64726
   S        5.40109        -5.60560         2.58290
   C        7.91077        -5.54927         3.85552
   C        8.57261        -6.64204         3.24139
   S       10.28071        -6.34171         2.98408
   C       10.45264        -7.69034         1.96916
   C        9.27763        -8.39990         1.84858
   C        8.19993        -7.84623         2.62847
   C        7.01050        -8.61986         2.76233
   C        6.82999        -9.70254         1.90820
   C        7.86337       -10.15337         1.06034
   C        9.08428        -9.55588         1.06066
   O        5.63123       -10.34725         1.91117
   N        6.06928        -8.32651         3.74366
   C        5.29893        -9.22028         4.39817
   S        5.76208       -10.88006         4.55550
   C        4.32429       -11.19601         5.47825
   N        4.10868       -12.49673         5.91021
   O        3.09611       -12.73021         6.55362
   O        4.95669       -13.32901         5.61103
   C        3.54087       -10.08323         5.64815
   C        4.08398        -8.93320         5.05127
   C        3.47291        -7.63830         5.09093
   C        2.13488        -7.44394         5.22375
   C        1.48081        -6.20157         5.36626
   C        2.01780        -5.01167         5.79044
   C        1.31620        -3.78991         5.92735
   C        2.05489        -2.76627         6.44524
   C        3.38332        -3.11820         6.74955
   S        3.66768        -4.79872         6.35754
   C        4.38678        -2.31101         7.26544
   C        4.32446        -0.94456         7.58425
   C        5.49974        -0.43579         8.07130
   C        6.54164        -1.37265         8.16215
   S        5.98423        -2.93971         7.60550
   C        7.82980        -1.14708         8.62568
   C        8.81861        -2.10702         8.70685
   C       10.09718        -1.88425         9.19554
   C       11.13191        -2.82952         9.31584
   C       12.28813        -2.33430         9.85143
   C       12.22254        -0.96504        10.17951
   S       10.64124        -0.32483         9.78125
   C       13.20875        -0.17551        10.73833
   C       14.51768        -0.57051        11.11547
   C       15.27016         0.42229        11.64733
   C       14.60492         1.68813        11.72956
   S       12.96367         1.52317        11.08525
   C       15.08930         2.84519        12.20563
   H       -1.34882        -4.79411         1.29022
   H       -0.39626        -6.28363         0.78610
   H       -0.02659        -2.85201         2.53883
   H        2.34536        -2.31678         3.38620
   H        4.56589        -2.43692         4.16708
   H        6.91826        -3.20203         4.85496
   H        8.56682        -4.93272         4.46108
   H       11.39124        -7.89762         1.49614
   H        7.67214       -11.01605         0.43709
   H        9.90144        -9.93843         0.47105
   H        5.65700       -11.09109         1.29725
   H        5.90268        -7.34954         3.94883
   H        2.62162       -10.10807         6.20362
   H        4.12206        -6.78352         4.97030
   H        1.48701        -8.30926         5.17689
   H        0.41595        -6.18794         5.16987
   H        0.28258        -3.70784         5.64053
   H        1.67297        -1.77683         6.62452
   H        3.42674        -0.36750         7.45210
   H        5.63884         0.58902         8.36772
   H        8.06134        -0.14112         8.95273
   H        8.58860        -3.11337         8.37862
   H       10.99625        -3.85173         9.00825
   H       13.17523        -2.91879        10.01643
   H       14.85842        -1.58189        10.98092
   H       16.28312         0.31035        11.99085
   H       16.09254         2.90306        12.58907
   H       14.49826         3.74226        12.22047
*
