# ORCA input file
# SCF done       -232.876345945556          0.000770106940
! CAM-B3LYP def2-SVP def2/J RIJCOSX Grid4 TightSCF
%maxcore 5000
%tddft
    Mode sTDDFT
    Ethresh 5.0
    maxcore 5000
end

%pal
  nprocs 6
  end
* xyz 0 1
   C        0.54931         0.77972         4.74658
   C        1.84920         0.55533         5.10407
   F        2.64996         1.58353         5.41241
   C        2.36301        -0.75607         5.15400
   F        3.64071        -0.94710         5.50898
   C        1.56987        -1.82522         4.84426
   C        0.22642        -1.62663         4.47146
   C       -0.29533        -0.30129         4.42390
   C       -1.64363        -0.07877         4.06174
   C       -2.44278        -1.14882         3.75830
   C       -1.91096        -2.46867         3.79656
   C       -0.61375        -2.71407         4.14276
   C       -2.96210        -3.43603         3.42026
   O       -2.83914        -4.64330         3.34660
   C       -4.14894        -2.61760         3.08975
   C       -3.84870        -1.22975         3.37998
   C       -4.75529        -0.20396         3.40317
   C       -6.14038        -0.37572         3.19303
   N       -7.27981        -0.46065         3.08320
   C       -4.42352         1.13228         3.70649
   N       -4.19834         2.23358         3.93878
   C       -5.22977        -3.07136         2.38511
   C       -5.51138        -4.43292         2.07546
   C       -5.28763        -5.54671         2.89569
   O       -5.24493        -5.51576         4.23626
   C       -5.64665        -4.38943         4.97075
   C       -5.26245        -6.88069         2.34030
   O       -4.78298        -7.94254         3.00927
   C       -3.86662        -7.77573         4.07782
   C       -5.74796        -7.12149         1.06466
   C       -6.17740        -6.02498         0.28226
   C       -6.02740        -4.68738         0.77019
   N       -6.41781        -3.77975        -0.11482
   S       -6.96499        -4.54589        -1.42770
   N       -6.71050        -6.05700        -0.93467
   C       -5.84415        -8.46861         0.51122
   C       -6.51092        -9.50036         1.18169
   C       -6.62900       -10.81940         0.61663
   N       -7.31892       -11.77594         1.28933
   C       -7.83120       -11.47955         2.43195
   C       -7.72780       -10.16770         2.98376
   N       -7.10616        -9.22388         2.36913
   F       -8.30381        -9.88130         4.15113
   F       -8.48929       -12.43832         3.08568
   C       -6.09384       -11.13177        -0.63759
   C       -5.43968       -10.09812        -1.31858
   C       -5.31251        -8.77455        -0.74701
   N       -4.61429        -7.95741        -1.54539
   S       -4.19222        -8.76278        -2.85875
   N       -4.83054       -10.18204        -2.50746
   C       -6.25502       -12.44554        -1.25507
   C       -5.88634       -13.61891        -0.61714
   O       -5.27836       -13.46667         0.57841
   C       -5.41533       -14.43152         1.60570
   C       -6.04073       -14.89246        -1.26853
   O       -5.50930       -15.93025        -0.58712
   C       -5.02788       -17.09049        -1.23860
   C       -6.62941       -15.00256        -2.52902
   C       -6.98447       -13.79448        -3.18980
   C       -6.79005       -12.52335        -2.55733
   N       -7.23628       -11.51606        -3.30224
   S       -7.83168       -12.10680        -4.67153
   N       -7.56681       -13.67312        -4.37954
   C       -7.00178       -16.25588        -3.13272
   C       -7.10838       -16.54552        -4.45283
   C       -7.96326       -17.68025        -4.89715
   O       -8.39069       -18.57911        -4.21079
   C       -8.20979       -17.43241        -6.33334
   C       -9.04408       -18.09293        -7.18839
   C       -9.15051       -17.64764        -8.52546
   C       -8.38771       -16.52132        -8.95165
   C       -8.50685       -16.07776       -10.28425
   C       -9.34165       -16.72226       -11.15314
   C      -10.09434       -17.83657       -10.73115
   C      -10.00128       -18.29086        -9.44549
   F      -10.90598       -18.44840       -11.60427
   F       -9.45326       -16.29874       -12.41915
   C       -7.52415       -15.86320        -8.04688
   C       -7.43442       -16.31483        -6.75749
   C       -6.63173       -15.85245        -5.63256
   C       -5.50557       -15.07872        -5.71085
   C       -4.64738       -14.88852        -4.61060
   N       -3.91064       -14.77322        -3.73748
   C       -5.05896       -14.45043        -6.88945
   N       -4.67208       -13.90149        -7.82039
   H        0.17101         1.78955         4.71518
   H        1.97895        -2.82253         4.88654
   H       -2.01050         0.93449         4.02806
   H       -0.23314        -3.72392         4.16794
   H       -5.84712        -2.35389         1.85790
   H       -4.80929        -3.70638         5.15115
   H       -6.00258        -4.77537         5.92685
   H       -6.44739        -3.83922         4.46811
   H       -3.28533        -8.69782         4.10267
   H       -4.39040        -7.65151         5.02753
   H       -3.20428        -6.92609         3.91029
   H       -5.24959       -13.88515         2.53469
   H       -4.67116       -15.22479         1.51588
   H       -6.41556       -14.86532         1.61685
   H       -4.77114       -16.88820        -2.27931
   H       -5.75151       -17.90581        -1.18124
   H       -4.12700       -17.38275        -0.69544
   H       -7.39204       -17.01671        -2.46554
   H       -9.61898       -18.94151        -6.85000
   H       -7.93561       -15.22805       -10.62407
   H      -10.58472       -19.14468        -9.13842
   H       -6.96283       -15.00861        -8.38969
*
