# ORCA input file
# SCF done       -273.896881270957          0.000925455374
! CAM-B3LYP def2-SVP def2/J RIJCOSX Grid4 TightSCF
%maxcore 5000
%tddft
    Mode sTDDFT
    Ethresh 5.0
    maxcore 5000
end

%pal
  nprocs 6
  end
* xyz 0 1
   C        5.79729         8.99050        -3.52153
   C        5.57807         8.58605        -4.81360
   C        6.55896         8.61526        -5.82737
   N        7.30677         8.60471        -6.69872
   C        4.36965         8.07692        -5.33282
   N        3.42896         7.65691        -5.84194
   C        7.06355         9.50088        -3.00607
   C        6.91347         9.76979        -1.61582
   C        7.93564        10.26473        -0.85895
   C        9.18268        10.52229        -1.47105
   C        9.34250        10.25750        -2.86167
   C        8.26483         9.74265        -3.61856
   C       10.58976        10.52024        -3.46375
   C       11.63007        11.02119        -2.72936
   C       11.47139        11.28194        -1.36019
   C       10.27387        11.03736        -0.74433
   C        5.54078         9.43875        -1.20280
   O        5.08308         9.53195        -0.07991
   C        4.84753         8.98043        -2.42172
   C        3.52738         8.63954        -2.51735
   C        2.51187         8.60323        -1.53937
   C        1.20789         8.27060        -1.87192
   C        0.31829         8.28842        -0.79112
   C        0.98608         8.60544         0.42490
   S        2.68025         8.93712         0.17053
   C        0.32891         8.67506         1.64443
   C        1.01949         9.06008         2.87888
   C        0.49464        10.05250         3.70379
   C        1.15040        10.42178         4.86204
   C        2.34179         9.81212         5.23393
   C        2.86367         8.82218         4.40800
   C        2.21827         8.45194         3.24608
   C        3.06531        10.21806         6.48052
   C       -1.05023         8.37738         1.63608
   C       -1.71275         8.06280         0.41784
   C       -1.07234         8.02679        -0.80374
   C       -1.80710         7.76492        -2.04518
   C       -1.68017         8.61516        -3.14053
   C       -2.41597         8.39343        -4.28910
   C       -3.29466         7.32181        -4.37942
   C       -3.41318         6.46922        -3.28636
   C       -2.68384         6.68499        -2.13614
   C       -4.10597         7.07825        -5.61279
   S       -3.42298         7.78374         0.66850
   C       -3.23296         8.04205         2.38466
   C       -1.93203         8.33359         2.73209
   C       -4.35224         7.94040         3.25754
   C       -5.63277         7.64295         2.74402
   C       -6.79464         7.53408         3.58448
   N       -7.98430         7.26845         3.03249
   C       -8.08370         7.08462         1.73763
   C       -6.92359         7.17210         0.90354
   N       -5.75308         7.45351         1.42530
   C       -7.01548         6.95373        -0.49270
   N       -7.11641         6.76309        -1.61792
   C       -9.35522         6.79295         1.18579
   N      -10.37113         6.54558         0.71754
   C       -6.73126         7.68708         4.98555
   C       -5.45286         7.98935         5.50743
   C       -4.28573         8.12190         4.65818
   N       -3.19733         8.42290         5.36660
   S       -3.58595         8.52939         6.92087
   N       -5.15185         8.20073         6.78891
   C       -7.90199         7.53618         5.78195
   C       -7.97962         7.55100         7.15659
   C       -9.28594         7.37060         7.64986
   C      -10.22522         7.19659         6.59833
   S       -9.45564         7.27781         5.02971
   C      -11.57772         7.01111         6.81450
   C      -12.53039         6.93754         5.70263
   C      -12.28474         6.11469         4.60485
   C      -13.15581         6.09368         3.53560
   C      -14.29599         6.89043         3.52683
   C      -14.54290         7.70386         4.62522
   C      -13.67551         7.73054         5.69980
   C      -15.22946         6.85640         2.35724
   C      -11.99410         6.93427         8.16230
   C      -11.04873         7.08695         9.21621
   C       -9.70311         7.33218         8.99755
   C       -8.75782         7.55229        10.09706
   C       -8.69420         6.66693        11.17088
   C       -7.80461         6.88177        12.20372
   C       -6.95887         7.98581        12.20265
   C       -7.02842         8.86984        11.13334
   C       -7.91169         8.65870        10.09253
   C       -6.01510         8.21787        13.34152
   S      -11.82346         6.96855        10.76976
   C      -13.38853         6.66774        10.01086
   C      -13.29305         6.68631         8.63817
   C      -14.47006         6.44645        10.89232
   C      -15.78541         6.14750        10.66718
   C      -16.74523         5.91710        11.73969
   C      -16.56532         6.13749        13.08107
   C      -17.55406         5.89503        14.05874
   N      -18.30403         5.72080        14.91068
   C      -15.41326         6.66005        13.70665
   N      -14.53358         7.08136        14.31419
   C      -17.98557         5.44018        11.13831
   C      -17.83478         5.45788         9.72457
   C      -16.48450         5.92946         9.37565
   O      -16.07165         6.09917         8.24638
   C      -18.83738         5.07285         8.88223
   C      -20.06349         4.63366         9.42862
   C      -20.22176         4.60359        10.84410
   C      -19.16565         5.01456        11.68959
   C      -21.44735         4.15830        11.38011
   C      -22.46812         3.76263        10.55933
   C      -22.31119         3.79378         9.16557
   C      -21.13445         4.22020         8.61229
   H        7.79322        10.45967         0.19370
   H        8.41993         9.55621        -4.66910
   H       10.70698        10.31761        -4.51824
   H       12.58139        11.21954        -3.19991
   H       12.30259        11.67781        -0.79596
   H       10.14560        11.23637         0.30969
   H        3.16653         8.35844        -3.49970
   H        0.91987         8.01143        -2.87581
   H       -0.41707        10.55633         3.41777
   H        0.73158        11.19948         5.48504
   H        3.78900         8.33610         4.68145
   H        2.63151         7.66895         2.62855
   H        2.42926        10.82134         7.12350
   H        3.94792        10.80433         6.22407
   H        3.39861         9.34236         7.03442
   H       -1.02794         9.47449        -3.07664
   H       -2.31069         9.07020        -5.12511
   H       -4.09245         5.63125        -3.33854
   H       -2.77628         6.00135        -1.30566
   H       -3.92539         7.84702        -6.35968
   H       -5.16671         7.06886        -5.36645
   H       -3.85723         6.10894        -6.04354
   H       -1.63761         8.49648         3.75250
   H       -7.11049         7.67122         7.77657
   H      -11.41674         5.47270         4.60020
   H      -12.94539         5.45630         2.68950
   H      -15.42199         8.33208         4.63891
   H      -13.86839         8.39546         6.52886
   H      -15.77484         5.91264         2.34119
   H      -14.67256         6.93401         1.42542
   H      -15.95052         7.66844         2.40791
   H       -9.32849         5.79306        11.18179
   H       -7.76324         6.18190        13.02578
   H       -6.38503         9.73811        11.11617
   H       -7.96828         9.36966         9.28131
   H       -6.56523         8.57174        14.21367
   H       -5.26681         8.96333        13.08413
   H       -5.51250         7.29339        13.61955
   H      -14.13589         6.50851         7.99601
   H      -14.17288         6.51107        11.93270
   H      -18.69359         5.10047         7.81221
   H      -19.31982         4.97601        12.75588
   H      -21.56396         4.13698        12.45376
   H      -23.40292         3.42318        10.97975
   H      -23.12717         3.47792         8.53280
   H      -21.00703         4.24622         7.53986
*
