# ORCA input file
# SCF done       -204.249891985449          0.000758412056
! CAM-B3LYP def2-SVP def2/J RIJCOSX Grid4 TightSCF
%maxcore 5000
%tddft
    Mode sTDDFT
    Ethresh 5.0
    maxcore 5000
end

%pal
  nprocs 6
  end
* xyz 0 1
   C       -0.29234         3.56483         4.96333
   C        0.57049         4.62305         4.84161
   C        1.11980         5.31340         5.93963
   N        1.58914         5.90703         6.80268
   C        1.08179         5.05261         3.60001
   N        1.55463         5.38377         2.60740
   C       -0.62056         2.87698         6.20617
   C       -1.05568         1.55670         5.88744
   C       -1.38937         0.66008         6.86093
   C       -1.31394         1.05401         8.21636
   C       -0.89964         2.37869         8.53867
   C       -0.55091         3.28442         7.51018
   C       -0.83869         2.76011         9.89418
   C       -1.16497         1.87584        10.88601
   C       -1.56933         0.57093        10.56820
   C       -1.64247         0.16910         9.26205
   C       -1.08053         1.39091         4.42213
   O       -1.34028         0.39534         3.78464
   C       -0.77972         2.74358         3.87633
   C       -1.06774         3.03506         2.57864
   C       -1.27931         4.30029         1.98364
   C       -1.22981         4.56943         0.62395
   C       -1.53815         5.89571         0.34823
   C       -1.88254         6.64797         1.50329
   S       -1.77987         5.69998         2.93354
   C       -2.19654         7.92961         1.07463
   C       -2.02753         7.93179        -0.33639
   N       -1.62035         6.69423        -0.76025
   C       -1.35750         6.29320        -2.11395
   C       -2.31171         9.15717        -0.92160
   C       -2.69775        10.09945         0.02518
   S       -2.70790         9.47031         1.66705
   C       -3.07535        11.44277        -0.22593
   C       -3.46286        12.29720         0.83169
   C       -3.88727        13.65521         0.61615
   N       -4.24302        14.40650         1.66261
   C       -4.20902        13.90837         2.87443
   C       -3.79208        12.55468         3.08854
   N       -3.43675        11.80491         2.07396
   C       -3.76249        12.01205         4.39687
   N       -3.75516        11.60456         5.46727
   C       -4.58879        14.71937         3.97213
   N       -4.88894        15.34062         4.88630
   C       -3.95341        14.23608        -0.67174
   C       -3.54239        13.39290        -1.73388
   C       -3.11241        12.02672        -1.51578
   N       -2.77969        11.43029        -2.66020
   S       -2.97796        12.45962        -3.87685
   N       -3.49993        13.71787        -3.02555
   C       -4.42324        15.56147        -0.85173
   C       -4.55308        16.23654        -2.06204
   C       -5.07801        17.50700        -1.88326
   C       -5.35238        17.81855        -0.52391
   S       -4.94554        16.51269         0.53062
   C       -5.88522        19.10191        -0.50382
   C       -5.92300        19.54168        -1.85916
   N       -5.43615        18.55973        -2.68390
   C       -5.28565        18.64839        -4.10927
   C       -6.45164        20.80780        -1.99863
   C       -6.83013        21.35851        -0.76554
   S       -6.50455        20.27958         0.58913
   C       -7.42590        22.62627        -0.69701
   C       -7.89194        23.33949         0.37841
   C       -8.53655        24.63658         0.32041
   C       -8.80513        25.38451        -0.79939
   C       -9.44262        26.64220        -0.77536
   N       -9.95451        27.66857        -0.83214
   C       -8.49835        25.02731        -2.12766
   N       -8.28804        24.81725        -3.23813
   C       -8.87143        25.02354         1.68823
   C       -8.43485        23.99416         2.57050
   C       -7.81830        22.91572         1.78379
   O       -7.34312        21.88224         2.21945
   C       -8.60719        24.07457         3.92152
   C       -9.24417        25.21244         4.46621
   C       -9.69214        26.24385         3.59190
   C       -9.49407        26.13268         2.19558
   C      -10.33354        27.37048         4.14479
   C      -10.52198        27.47617         5.49628
   C      -10.07685        26.46171         6.35633
   C       -9.45157        25.35341         5.85204
   H       -1.70745        -0.33890         6.60212
   H       -0.24790         4.28492         7.77721
   H       -0.52398         3.76505        10.13378
   H       -1.11260         2.17708        11.92155
   H       -1.82301        -0.11421        11.36320
   H       -1.95395        -0.83438         9.01138
   H       -1.23795         2.17677         1.93528
   H       -0.94688         3.82767        -0.10040
   H       -1.18104         7.17907        -2.72057
   H       -2.20363         5.73951        -2.53138
   H       -0.47163         5.65810        -2.14420
   H       -2.25903         9.39399        -1.96744
   H       -4.27062        15.78688        -2.99508
   H       -6.14123        19.17206        -4.53625
   H       -5.23679        17.64491        -4.52807
   H       -4.37311        19.18928        -4.37710
   H       -6.57932        21.33962        -2.92444
   H       -7.53537        23.09170        -1.66917
   H       -8.26363        23.27939         4.56634
   H       -9.84370        26.93312         1.56338
   H      -10.67424        28.14953         3.47864
   H      -11.01533        28.34303         5.90974
   H      -10.23195        26.56205         7.42019
   H       -9.10708        24.56823         6.50899
*
