# ORCA input file
# SCF done       -200.037643051797          0.000644232010
! CAM-B3LYP def2-SVP def2/J RIJCOSX Grid4 TightSCF
%maxcore 5000
%tddft
    Mode sTDDFT
    Ethresh 5.0
    maxcore 5000
end

%pal
  nprocs 6
  end
* xyz 0 1
   C       -0.13659         5.75820        -3.91722
   C       -1.30881         5.19051        -3.49217
   C       -2.55321         5.38055        -4.12483
   N       -3.59549         5.49907        -4.59100
   C       -1.38396         4.28172        -2.41711
   N       -1.47273         3.49324        -1.58641
   C        0.05123         6.46131        -5.17867
   C        1.43444         6.40727        -5.52280
   C        1.90064         6.94578        -6.68727
   C        0.99336         7.58391        -7.56373
   C       -0.38502         7.66334        -7.21022
   C       -0.84318         7.08816        -6.00263
   C       -1.27482         8.31540        -8.08777
   C       -0.82884         8.85750        -9.26224
   C        0.52712         8.77458        -9.61210
   C        1.41840         8.15202        -8.78088
   C        2.18194         5.73064        -4.44476
   O        3.36012         5.45784        -4.40931
   C        1.18137         5.51345        -3.36339
   C        1.57135         5.25358        -2.08678
   C        0.78487         5.44403        -0.92515
   C        0.84777         4.73787         0.26467
   O        1.69709         3.70492         0.47670
   C        1.24400         2.84237         1.50489
   C        0.78934         3.64068         2.73344
   C        1.93379         4.45243         3.33569
   O       -0.29640         4.49058         2.37960
   C       -0.12653         5.13328         1.20738
   C       -0.92443         6.18512         0.76410
   S       -0.48759         6.63526        -0.85456
   C       -2.02027         6.83057         1.40448
   C       -2.97981         7.52669         0.63612
   C       -4.18878         8.04993         1.19963
   N       -5.07408         8.66455         0.39004
   C       -4.83011         8.77711        -0.87392
   C       -3.62802         8.26349        -1.43159
   N       -2.75633         7.67077        -0.68457
   F       -3.35273         8.39342        -2.72500
   F       -5.72500         9.39898        -1.63124
   C       -4.49052         7.96144         2.57775
   C       -3.49953         7.33251         3.36752
   C       -2.27505         6.80135         2.79344
   N       -1.46959         6.30657         3.73140
   S       -2.18487         6.43060         5.15792
   N       -3.53963         7.13534         4.68374
   C       -5.73878         8.44581         3.06943
   C       -6.13532         8.74361         4.37152
   O       -5.31667         8.77230         5.44781
   C       -6.03770         8.73806         6.66446
   C       -7.15338         9.78980         6.66599
   C       -6.59251        11.20272         6.51697
   O       -8.07573         9.50007         5.62186
   C       -7.50359         9.06587         4.48383
   C       -8.18240         8.99233         3.27126
   S       -7.06336         8.68085         1.96633
   C       -9.55396         9.18198         3.01702
   C      -10.56187         8.81752         3.86739
   C      -11.96753         9.11904         3.70592
   C      -12.49349        10.10645         2.91257
   C      -13.87103        10.38566         2.81085
   N      -14.98046        10.65503         2.68714
   C      -11.72438        11.00013         2.13871
   N      -11.16169        11.77897         1.50972
   C      -12.71708         8.25901         4.61373
   C      -11.78945         7.49411         5.37663
   C      -10.41328         7.82225         4.95737
   O       -9.39560         7.29725         5.35893
   C      -12.20035         6.59092         6.31307
   C      -13.58429         6.40791         6.53483
   C      -14.51821         7.16525         5.77130
   C      -14.06247         8.09436         4.80725
   C      -15.89587         6.96632         5.99321
   C      -16.33240         6.06349         6.92430
   C      -15.41185         5.31874         7.67614
   C      -14.06712         5.48844         7.48630
   H        2.94929         6.88772        -6.93888
   H       -1.88825         7.16979        -5.74689
   H       -2.31800         8.37374        -7.81435
   H       -1.51877         9.35294        -9.92892
   H        0.86226         9.20738       -10.54291
   H        2.46393         8.08655        -9.04488
   H        2.59451         4.92460        -1.94065
   H        2.08499         2.19242         1.74798
   H        0.40574         2.24117         1.12970
   H        0.37199         2.95962         3.48170
   H        2.42641         5.04497         2.56769
   H        2.66313         3.78693         3.78864
   H        1.53746         5.12296         4.09379
   H       -5.31003         8.93204         7.45231
   H       -6.48344         7.74468         6.80166
   H       -7.74051         9.70825         7.58653
   H       -5.93447        11.26246         5.65263
   H       -6.02999        11.47212         7.40633
   H       -7.40817        11.90889         6.38477
   H       -9.80249         9.58077         2.04103
   H      -11.47862         6.01954         6.87805
   H      -14.79299         8.64582         4.23659
   H      -16.60075         7.54274         5.41212
   H      -17.38998         5.91783         7.08613
   H      -15.77320         4.60929         8.40570
   H      -13.35341         4.91682         8.06179
*
