# ORCA input file
# SCF done       -263.200192918001          0.000886808651
! CAM-B3LYP def2-SVP def2/J RIJCOSX Grid4 TightSCF
%maxcore 5000
%tddft
    Mode sTDDFT
    Ethresh 5.0
    maxcore 5000
end

%pal
  nprocs 6
  end
* xyz 0 1
   C       -0.35513         1.12873        -1.17455
   C       -0.38197         1.80938         0.01682
   C       -1.11136         1.39635         1.14689
   N       -1.73519         1.14109         2.07743
   C        0.34653         2.99262         0.25430
   N        0.95186         3.93603         0.50108
   C       -0.81299        -0.24504        -1.35994
   C       -0.20468        -0.77051        -2.53732
   C       -0.40431        -2.06070        -2.93495
   C       -1.24552        -2.89641        -2.16642
   C       -1.87077        -2.37284        -0.99802
   C       -1.63958        -1.03397        -0.60620
   C       -2.71110        -3.21583        -0.24291
   C       -2.92196        -4.51426        -0.61967
   C       -2.30503        -5.02891        -1.76960
   C       -1.48469        -4.23705        -2.52646
   C        0.59660         0.28387        -3.18249
   O        1.28717         0.19809        -4.17112
   C        0.33031         1.52081        -2.38821
   C        0.60682         2.71961        -2.97124
   C        0.14400         4.01707        -2.64639
   C       -0.86348         4.39260        -1.79533
   C       -1.07588         5.78186        -1.71960
   C       -1.92032         6.48009        -0.82522
   C       -2.63174         5.82487         0.25079
   C       -2.81430         6.31022         1.51733
   C       -3.48711         5.40703         2.36522
   C       -3.84651         4.23077         1.77225
   S       -3.34144         4.23559         0.11867
   C       -4.50335         3.04349         2.36686
  Cl       -3.81398         5.76517         4.01458
   C       -1.95535         7.86543        -0.97294
   C       -1.16311         8.56275        -1.92339
   C       -0.22991         7.87419        -2.72861
   C       -0.22418         6.48918        -2.61088
   S        0.83633         5.40603        -3.46270
   C        0.68879         8.56133        -3.61031
   C        1.14260         8.15985        -4.83534
   C        2.08661         9.05139        -5.38672
   C        2.37654        10.12744        -4.59803
   S        1.45537        10.05436        -3.13590
   C        3.32429        11.24075        -4.85569
  Cl        2.80474         8.79042        -6.92927
   C       -1.46639         9.94152        -1.94778
   C       -2.42750        10.29756        -1.04423
   S       -3.00305         8.95308        -0.09982
   C       -2.97477        11.60153        -0.82524
   N       -3.83992        11.75020         0.16355
   N       -4.41515        12.87679         0.45286
   C       -4.19971        13.98676        -0.23521
   C       -3.29096        13.96159        -1.32891
   C       -2.63816        12.72584        -1.63374
   N       -1.80984        12.84355        -2.66839
   S       -1.85660        14.36392        -3.19753
   N       -2.92457        14.94321        -2.14573
   C       -4.89535        15.17977         0.14545
   C       -5.69441        15.33909         1.24375
   C       -6.25146        16.63287         1.34660
   C       -7.06827        17.14642         2.37718
   C       -7.53101        16.30080         3.45699
   C       -7.98053        15.01255         3.38410
   C       -8.35482        14.49572         4.64268
   C       -8.19067        15.36602         5.68201
   S       -7.57086        16.87367         5.10261
   C       -8.47125        15.15750         7.12429
  Cl       -8.96550        12.89726         4.83366
   C       -7.40152        18.49354         2.29094
   C       -6.99525        19.33066         1.21510
   C       -6.18624        18.81235         0.17771
   C       -5.83777        17.46984         0.27604
   S       -4.78605        16.62150        -0.82642
   C       -5.71871        19.62484        -0.92461
   C       -5.57261        19.25073        -2.23218
   C       -5.04618        20.28184        -3.03574
   C       -4.77020        21.43838        -2.36310
   S       -5.17657        21.26437        -0.69348
   C       -4.21347        22.71002        -2.88900
  Cl       -4.77728        20.08353        -4.72473
   C       -7.52853        20.62971         1.32240
   C       -8.29468        20.82457         2.44515
   S       -8.39978        19.35752         3.41642
   C       -8.98958        21.94956         2.94826
   C       -9.08915        23.23597         2.50121
   C       -9.84403        24.26714         3.20544
   C      -10.71881        24.09225         4.24561
   C      -11.41796        25.14694         4.87176
   N      -12.01611        25.95241         5.42980
   C      -11.09392        22.86661         4.83734
   N      -11.47543        21.92552         5.37447
   C       -9.55086        25.54817         2.57395
   C       -8.71550        25.31300         1.44727
   C       -8.42985        23.87356         1.33219
   O       -7.78638        23.35472         0.44292
   C       -8.28136        26.32677         0.64254
   C       -8.66447        27.65330         0.93908
   C       -9.49330        27.90003         2.07135
   C       -9.93100        26.82814         2.88243
   C       -9.86646        29.22810         2.36252
   C       -9.44330        30.26316         1.57404
   C       -8.62813        30.01871         0.45865
   C       -8.24714        28.74164         0.14793
   H        0.07395        -2.44031        -3.82561
   H       -2.13167        -0.66187         0.27880
   H       -3.18207        -2.81632         0.64325
   H       -3.56565        -5.15239        -0.03321
   H       -2.48263        -6.05567        -2.05249
   H       -1.00632        -4.62776        -3.41260
   H        1.21758         2.65126        -3.86692
   H       -1.47420         3.67876        -1.27982
   H       -2.44214         7.25789         1.85802
   H       -4.94150         3.30630         3.32627
   H       -3.76477         2.25317         2.52266
   H       -5.27769         2.65656         1.70700
   H        0.79672         7.28388        -5.35131
   H        4.19092        11.16587        -4.19837
   H        2.84673        12.20186        -4.67272
   H        3.66517        11.20031        -5.88727
   H       -1.02145        10.65492        -2.61580
   H       -5.83451        14.54762         1.95514
   H       -8.08609        14.46085         2.46854
   H       -9.21220        15.87410         7.47702
   H       -7.56593        15.29395         7.71494
   H       -8.84862        14.15039         7.28241
   H       -5.86449        18.29457        -2.62411
   H       -3.21727        22.89020        -2.48521
   H       -4.84757        23.54763        -2.60357
   H       -4.14906        22.66290        -3.97312
   H       -7.37510        21.40771         0.59870
   H       -9.51119        21.72877         3.87240
   H       -7.65076        26.11761        -0.20888
   H      -10.55483        27.05190         3.73267
   H      -10.49538        29.41126         3.22135
   H       -9.73476        31.27674         1.80519
   H       -8.30348        30.84747        -0.15264
   H       -7.61943        28.54720        -0.70950
*
