# ORCA input file
# SCF done       -231.861775287632          0.000898727556
! CAM-B3LYP def2-SVP def2/J RIJCOSX Grid4 TightSCF
%maxcore 5000
%tddft
    Mode sTDDFT
    Ethresh 5.0
    maxcore 5000
end

%pal
  nprocs 6
  end
* xyz 0 1
   C       -5.88316        -3.55633        -1.89562
   C       -6.49531        -2.96101        -2.98638
   C       -7.87178        -3.12013        -3.14242
   C       -8.52529        -2.55506        -4.26723
   N       -9.05730        -2.13821        -5.19062
   C       -8.62751        -3.86266        -2.21261
   C      -10.02725        -3.99270        -2.38568
   N      -11.15990        -4.11065        -2.50459
   C       -8.00282        -4.48576        -1.13176
   C       -6.63808        -4.33676        -0.99608
   C       -5.74747        -4.93118         0.01554
   O       -6.05246        -5.58132         0.98586
   C       -4.36232        -4.55207        -0.41412
   C       -4.48632        -3.56539        -1.48087
   C       -3.51115        -2.72212        -1.92365
   C       -3.75874        -1.61800        -2.76786
   N       -3.90251        -0.65459        -3.37456
   C       -2.15498        -2.75491        -1.52332
   N       -1.03432        -2.73361        -1.28084
   C       -3.23531        -5.06739         0.10218
   C       -3.19894        -6.04561         1.17996
   C       -2.44845        -5.78309         2.32299
   C       -1.62785        -4.58696         2.62413
   O       -1.48727        -3.59559         1.95671
   N       -1.04606        -4.84185         3.86775
   C       -1.46562        -6.06612         4.41379
   O       -1.10509        -6.49939         5.47334
   C       -2.37595        -6.66301         3.40500
   C       -3.06388        -7.86095         3.41081
   C       -3.79791        -8.14847         2.26204
   C       -3.85532        -7.28677         1.16882
   C       -4.62299        -7.81673         0.02064
   O       -4.74889        -7.33351        -1.06679
   S       -5.34414        -9.38813         0.47578
   C       -4.57840        -9.39450         2.10359
   O       -4.70261       -10.28000         2.89041
   C       -0.12406        -4.04753         4.54322
   C        0.51937        -3.00316         4.00572
   C        1.47110        -2.17506         4.68862
   S        1.37323        -0.50378         4.30697
   C        2.56161        -0.06371         5.49541
   C        3.02674        -1.21113         6.17893
   C        2.44704        -2.42808         5.66782
   C        2.95147        -3.68667         6.09184
   C        2.64068        -4.98803         5.41830
   C        3.84579        -3.68732         7.13375
   C        4.27987        -2.50750         7.74221
   C        3.92829        -1.26374         7.27094
   C        4.51203        -0.05651         7.93197
   C        2.94477         1.28786         5.59713
   C        2.32084         2.27728         4.89453
   C        2.64969         3.65441         4.79206
   C        2.12460         4.37532         3.68868
   C        1.17132         3.92440         2.66764
   O        0.61137         2.86896         2.50797
   N        0.95860         5.03285         1.81478
   C        1.70992         6.14941         2.20618
   O        1.72770         7.21120         1.65074
   C        2.45360         5.70093         3.40925
   C        3.33747         6.41641         4.19492
   C        3.80869         5.75730         5.32427
   C        3.46377         4.44615         5.65687
   C        3.91445         4.06834         7.00392
   O        3.63284         3.10756         7.65998
   S        4.97366         5.36644         7.68013
   C        4.70153         6.44355         6.28459
   O        5.17724         7.53241         6.17579
   C       -0.03831         4.96481         0.87380
   C       -0.54689         5.97438         0.14460
   C       -1.67417         5.79399        -0.70735
   C       -2.65860         4.85728        -0.62824
   C       -3.55184         4.65214        -1.80426
   O       -3.66740         5.37402        -2.76317
   C       -4.22728         3.35245        -1.56249
   C       -5.06875         2.64322        -2.39608
   C       -5.53876         1.40871        -1.95103
   C       -5.12480         0.90032        -0.70285
   C       -4.28584         1.62942         0.13783
   C       -3.86012         2.87501        -0.29029
   C       -3.03237         3.87973         0.37944
   C       -2.91160         3.96263         1.73978
   C       -2.28311         5.00869         2.44695
   N       -1.80236         5.81842         3.10265
   C       -3.46227         3.01799         2.63440
   N       -3.88792         2.28209         3.40457
   C       -5.55163        -0.38974        -0.31577
   N       -5.87166        -1.45033        -0.02164
   C       -6.43029         0.62405        -2.71929
   N       -7.16996        -0.03905        -3.28931
   H       -5.94535        -2.38800        -3.71637
   H       -8.57002        -5.07344        -0.42584
   H       -2.26731        -4.72325        -0.23958
   H       -3.03676        -8.54501         4.24397
   H        0.03692        -4.37790         5.55865
   H        0.24490        -2.66504         3.01562
   H        2.35961        -4.84277         4.37967
   H        1.84020        -5.52338         5.92714
   H        3.52391        -5.62322         5.45392
   H        4.23701        -4.62889         7.48977
   H        4.95352        -2.57941         8.58317
   H        5.00069        -0.34704         8.85898
   H        3.75103         0.68487         8.16447
   H        5.26587         0.40691         7.29519
   H        3.78971         1.51702         6.21797
   H        1.50201         1.97770         4.25347
   H        3.62233         7.43257         3.97718
   H       -0.41029         3.95129         0.76827
   H       -0.08839         6.95143         0.17005
   H       -1.75912         6.47116        -1.55117
   H       -5.35167         3.03078        -3.36255
   H       -3.97995         1.20606         1.08126
*
