# ORCA input file
# SCF done       -186.114960871559          0.000886115861
! CAM-B3LYP def2-SVP def2/J RIJCOSX Grid4 TightSCF
%maxcore 5000
%tddft
    Mode sTDDFT
    Ethresh 5.0
    maxcore 5000
end

%pal
  nprocs 6
  end
* xyz 0 1
   C        1.35265        -8.13910       -12.49418
   C        2.67728        -8.31030       -12.86306
   C        3.70926        -7.78999       -12.09211
   C        3.44630        -7.08635       -10.92762
   C        2.12548        -6.90387       -10.54797
   C        1.07310        -7.42998       -11.33544
   C       -0.19288        -7.09361       -10.70867
   C       -1.42496        -7.59964       -11.01942
   C       -1.66393        -8.49107       -12.08652
   N       -1.91832        -9.20800       -12.94583
   C       -2.59541        -7.35594       -10.26926
   N       -3.57103        -7.22107        -9.67857
   C        0.11321        -6.14455        -9.63539
   C        1.55243        -6.24074        -9.38943
   C        2.19478        -5.96787        -8.21426
   C        1.53893        -5.57012        -7.02953
   N        1.06940        -5.29839        -6.01838
   C        3.58201        -6.13400        -8.02263
   N        4.70744        -6.23289        -7.81984
   C       -0.78155        -5.24695        -9.15853
   C       -0.55661        -4.07680        -8.35985
   C        0.50647        -3.23767        -8.36619
   C        0.24620        -2.08611        -7.46533
   C       -1.12480        -2.36560        -6.95704
   C       -1.59669        -3.51781        -7.48193
   C       -2.85912        -4.17355        -7.24702
   C       -3.95163        -3.55032        -6.77518
   C       -5.24264        -4.14421        -6.51548
   C       -6.29299        -3.31948        -6.18228
   C       -7.57114        -3.84971        -5.91011
   C       -8.77374        -3.24696        -5.57007
   C       -9.09450        -1.79487        -5.43410
   C       -8.16257        -1.06947        -4.44728
   N       -8.88772         0.01239        -3.80278
   C       -9.08776        -1.12022        -6.81796
   N      -10.19520        -1.63313        -7.60721
   C       -9.74053        -4.30795        -5.40930
   C      -11.05140        -4.27152        -5.10582
   C      -11.86598        -5.51748        -5.03546
   C      -11.08866        -6.78064        -5.20898
   C       -9.77859        -6.79964        -5.51632
   C       -9.06202        -5.58617        -5.65196
   C       -7.74961        -5.29643        -5.96746
   C       -6.65569        -6.12077        -6.31802
   C       -5.44994        -5.56147        -6.58811
   C      -12.95407        -5.37272        -6.08303
   C      -12.85487        -5.88567        -7.30607
   C      -13.86355        -5.76662        -8.33930
   C      -14.82929        -4.83203        -8.45276
   C      -15.66578        -5.09582        -9.65611
   C      -15.05193        -6.32241       -10.22445
   C      -14.00238        -6.71392        -9.45896
   C      -13.17080        -7.86793        -9.61881
   C      -13.37510        -8.88401       -10.48616
   C      -12.51372       -10.01399       -10.59868
   C      -11.74975       -10.56992        -9.61501
   C      -10.58347       -11.41855        -9.85056
   C      -10.30188       -12.15003       -10.97102
   C      -11.13334       -12.24757       -12.10724
   N      -11.76450       -12.38055       -13.05705
   C       -9.15882       -12.96636       -11.11181
   N       -8.25595       -13.65318       -11.28516
   C       -9.77336       -11.35545        -8.64120
   C      -10.50953       -10.69146        -7.63339
   C       -9.96144       -10.48672        -6.37760
   C       -8.67064       -10.93330        -6.13850
   C       -7.94508       -11.58235        -7.12793
   C       -8.48759       -11.80497        -8.38483
   C      -11.81241       -10.33749        -8.17292
   C      -12.93927       -10.08758        -7.43704
   C      -12.94818        -9.95756        -6.03498
   N      -13.00758        -9.80992        -4.89747
   C      -14.23735        -9.98161        -7.97944
   N      -15.32402        -9.93546        -8.34504
   H        0.56182        -8.54412       -13.10448
   H        2.90859        -8.85488       -13.76567
   H        4.73246        -7.93361       -12.40396
   H        4.25560        -6.68265       -10.34075
   H       -1.81182        -5.36912        -9.46968
   H        1.39784        -3.32467        -8.96195
   H        0.31518        -1.12771        -7.98649
   H        0.97665        -2.05369        -6.65168
   H       -1.61779        -1.73256        -6.24398
   H       -2.89701        -5.22475        -7.49395
   H       -3.89118        -2.48617        -6.58146
   H       -6.13501        -2.25206        -6.13119
   H      -10.10726        -1.69819        -5.03453
   H       -7.25481        -0.72875        -4.97178
   H       -7.85557        -1.76872        -3.66460
   H       -9.17532         0.70322        -4.48792
   H       -8.30070         0.47799        -3.11970
   H       -8.10411        -1.28004        -7.29092
   H       -9.24085        -0.04249        -6.70491
   H      -10.09756        -2.63734        -7.72212
   H      -10.19799        -1.21302        -8.53030
   H      -11.57565        -3.33961        -4.94698
   H      -12.36707        -5.54938        -4.05720
   H      -11.65515        -7.69081        -5.08278
   H       -9.25149        -7.73418        -5.65098
   H       -6.79323        -7.19134        -6.37084
   H       -4.62013        -6.19373        -6.85910
   H      -13.81995        -4.79678        -5.79267
   H      -11.96861        -6.45577        -7.55394
   H      -14.99374        -3.99309        -7.80318
   H      -15.64952        -4.26167       -10.36254
   H      -16.71469        -5.26011        -9.39439
   H      -15.41099        -6.79380       -11.11980
   H      -12.30233        -7.91771        -8.97408
   H      -14.18036        -8.82270       -11.20417
   H      -12.41923       -10.42350       -11.59615
   H      -10.51478        -9.98205        -5.60240
   H       -8.22501       -10.77011        -5.16879
   H       -6.94096       -11.91859        -6.91961
   H       -7.90879       -12.30788        -9.14201
*
