# ORCA input file
# SCF done       -212.954873438093          0.000626558350
! CAM-B3LYP def2-SVP def2/J RIJCOSX Grid4 TightSCF
%maxcore 5000
%tddft
    Mode sTDDFT
    Ethresh 5.0
    maxcore 5000
end

%pal
  nprocs 6
  end
* xyz 0 1
   C       -7.26729       -10.45645         3.55733
   C       -6.26595       -11.41733         3.56100
   C       -5.11746       -11.25647         2.80092
   C       -4.94013       -10.13219         2.00748
   C       -5.93066        -9.16550         1.99879
   C       -7.09746        -9.32351         2.77900
   C       -7.94402        -8.14872         2.59720
   C       -9.20377        -7.98704         3.11559
   C       -9.86585        -8.95100         3.90344
   N      -10.46922        -9.68815         4.54486
   C      -10.04095        -6.87111         2.91213
   N      -10.78671        -6.00608         2.78560
   C       -7.18755        -7.20901         1.78739
   C       -6.03420        -7.91152         1.26781
   C       -5.30759        -7.58951         0.14668
   C       -5.61006        -6.52472        -0.72107
   N       -5.81749        -5.69112        -1.48490
   C       -4.17248        -8.29190        -0.29567
   N       -3.21055        -8.77873        -0.69457
   C       -7.49737        -5.86885         1.67209
   C       -6.63624        -4.82539         1.33342
   C       -5.22951        -4.75213         1.33662
   C       -4.72766        -3.50514         0.86984
   N       -3.40820        -3.26780         0.80914
   C       -2.62456        -4.23306         1.20382
   C       -3.11301        -5.46394         1.71686
   C       -2.18546        -6.51178         2.22282
   N       -4.40158        -5.70964         1.78344
   C       -5.74382        -2.58718         0.53714
   S       -7.28887        -3.27181         0.87138
   C       -5.59730        -1.25150         0.08387
   C       -4.55488        -0.75964        -0.62858
   C       -3.55493        -1.50167        -1.35335
   C       -2.32701        -0.91826        -1.58154
   C       -1.34754        -1.58868        -2.34018
   C       -0.05126        -1.23389        -2.70737
   C        0.78956        -0.08465        -2.26479
   C        0.41662         1.24114        -2.96300
   N       -0.96494         1.61375        -2.72700
   C        0.77793         0.08023        -0.72275
   N        1.16568        -1.10286         0.01172
   C        0.42425        -2.26932        -3.59461
   C        1.56961        -2.38289        -4.29296
   C        1.78772        -3.50365        -5.25205
   C        0.76753        -4.59984        -5.16435
   C       -0.37354        -4.47009        -4.46010
   C       -0.61549        -3.30346        -3.69707
   C       -1.68341        -2.87971        -2.93128
   C       -2.95603        -3.44797        -2.69176
   C       -3.85329        -2.78497        -1.92117
   C        3.20399        -4.02113        -5.21465
   C        3.89406        -4.40996        -4.13432
   C        3.47887        -4.52714        -2.77530
   C        4.37171        -4.56212        -1.69541
   C        3.72592        -4.67509        -0.42767
   N        4.45575        -4.80086         0.69741
   C        5.74907        -4.72353         0.56471
   C        6.39474        -4.49807        -0.68475
   C        7.87242        -4.32256        -0.74989
   N        5.70867        -4.45489        -1.79818
   C        2.32506        -4.73720        -0.53079
   S        1.86276        -4.69163        -2.20578
   C        1.35263        -4.92972         0.47366
   C        1.47786        -4.55911         1.78743
   C        2.47247        -3.65885         2.19880
   C        2.96467        -3.32199         3.43661
   C        4.23835        -2.62342         3.55214
   C        4.93030        -1.97170         2.56083
   C        4.52033        -1.76437         1.22878
   N        4.30821        -1.53593         0.12057
   C        6.21830        -1.42049         2.72001
   N        7.27912        -0.98004         2.74391
   C        4.69929        -2.79606         4.92151
   C        3.71126        -3.49924         5.64595
   C        3.91977        -3.83015         6.97468
   C        5.10781        -3.44582         7.57899
   C        6.06850        -2.73574         6.87493
   C        5.87522        -2.40469         5.54213
   C        2.56666        -3.72981         4.77109
   C        1.32052        -4.09188         5.21752
   C        1.03036        -4.46748         6.54708
   N        0.71178        -4.80673         7.59678
   C        0.12562        -4.06359         4.47744
   N       -0.90537        -4.04557         3.96902
   H       -8.15084       -10.59839         4.15746
   H       -6.38505       -12.30084         4.16960
   H       -4.34873       -12.01406         2.82647
   H       -4.04142       -10.01494         1.42358
   H       -8.50428        -5.56617         1.92800
   H       -1.56282        -4.03551         1.16247
   H       -1.55373        -6.87954         1.41502
   H       -2.75420        -7.33942         2.63767
   H       -1.54914        -6.08223         2.99499
   H       -6.38698        -0.57283         0.38172
   H       -4.48234         0.31760        -0.71843
   H       -2.11675         0.05940        -1.17786
   H        1.82646        -0.29992        -2.55247
   H        0.65634         1.13869        -4.03610
   H        1.05241         2.02918        -2.55045
   H       -1.12736         2.56982        -3.02084
   H       -1.58504         1.01315        -3.25991
   H       -0.21530         0.37805        -0.39052
   H        1.47968         0.87585        -0.45938
   H        0.54172        -1.87288        -0.20804
   H        2.11263        -1.37380        -0.23827
   H        2.36010        -1.64692        -4.23287
   H        1.65905        -3.04889        -6.25045
   H        0.97390        -5.48551        -5.74473
   H       -1.10983        -5.26012        -4.45666
   H       -3.21220        -4.39582        -3.14124
   H       -4.83751        -3.20175        -1.77458
   H        3.71750        -4.04388        -6.16516
   H        4.94118        -4.65965        -4.25971
   H        6.33333        -4.84369         1.46795
   H        8.37699        -5.17367        -0.29551
   H        8.16000        -3.42794        -0.19838
   H        8.18517        -4.22154        -1.78483
   H        0.45215        -5.44501         0.16247
   H        0.76229        -4.95345         2.48834
   H        2.97798        -3.17664         1.37911
   H        3.18652        -4.38369         7.53726
   H        5.28218        -3.70308         8.61255
   H        6.98223        -2.43864         7.36659
   H        6.63358        -1.85464         5.01007
*
