# ORCA input file
# SCF done       -224.997321638140          0.000609109201
! CAM-B3LYP def2-SVP def2/J RIJCOSX Grid4 TightSCF
%maxcore 5000
%tddft
    Mode sTDDFT
    Ethresh 5.0
    maxcore 5000
end

%pal
  nprocs 6
  end
* xyz 0 1
   C        1.37910         2.08407         1.19957
   C        0.81409         1.08610         0.45513
   C        1.52765        -0.03409        -0.02143
   N        2.07402        -0.94226        -0.46088
   C       -0.54823         1.04547         0.09750
   N       -1.65324         0.95586        -0.20108
   C        2.71785         2.07965         1.76938
   C        2.78976         3.07595         2.78822
   C        3.92551         3.27395         3.52047
   C        5.06245         2.47780         3.25831
   C        5.00496         1.49577         2.22608
   C        3.81541         1.30953         1.48653
   C        6.15115         0.71563         1.96750
   C        7.29631         0.89058         2.69561
   C        7.35009         1.85442         3.71413
   C        6.25738         2.63117         3.98909
   C        1.51285         3.80214         2.85970
   O        1.18588         4.68202         3.61521
   C        0.70453         3.26776         1.71249
   C       -0.32775         3.98901         1.24308
   C       -1.03210         3.84341        -0.01512
   C       -0.39501         3.69845        -1.25235
   C        1.05089         3.62197        -1.58349
   O        2.00141         3.68732        -0.83924
   N        1.11789         3.45428        -2.96255
   C       -0.15301         3.45766        -3.56139
   O       -0.35535         3.35510        -4.73878
   C       -1.11698         3.61025        -2.44636
   C       -2.49633         3.65160        -2.49190
   C       -3.14004         3.79193        -1.26672
   C       -2.43698         3.89087        -0.07129
   C       -3.28917         3.97104         1.13119
   O       -2.93942         4.01673         2.27181
   S       -5.01106         3.97430         0.62457
   C       -4.61155         3.83840        -1.12194
   O       -5.42879         3.80002        -1.98815
   C        2.25927         3.30649        -3.74392
   C        3.50742         3.14625        -3.27938
   C        4.65422         3.00817        -4.11804
   N        5.89403         2.77396        -3.56463
   C        6.80996         2.70345        -4.56757
   C        8.15555         2.52707        -4.85424
   C        8.27234         2.62480        -6.25155
   N        7.02440         2.85276        -6.79840
   C        6.11868         2.90605        -5.79341
   C        4.76810         3.09211        -5.50770
   C        9.46787         2.53892        -6.99789
   C        9.53925         2.69941        -8.34644
   C       10.71384         2.72676        -9.15135
   C       11.95462         2.11417        -8.84570
   C       12.32235         1.15353        -7.77572
   O       11.65576         0.67753        -6.89683
   N       13.67975         0.83882        -7.98901
   C       14.20412         1.50562        -9.10553
   O       15.33753         1.42056        -9.48933
   C       13.07334         2.27594        -9.66497
   C       13.06206         3.01196       -10.83532
   C       11.83748         3.56147       -11.18727
   C       10.69844         3.42496       -10.39673
   C        9.51752         4.08867       -10.97004
   O        8.40006         4.15968       -10.54149
   S        9.95596         4.86049       -12.54016
   C       11.66043         4.33465       -12.43477
   O       12.48928         4.58514       -13.25563
   C       14.47025        -0.01876        -7.25227
   C       14.07402        -0.83529        -6.25741
   C       15.03251        -1.67279        -5.62180
   C       14.75434        -2.61435        -4.68030
   C       15.71041        -3.50658        -4.04315
   C       17.07511        -3.39386        -4.06143
   C       17.95004        -4.28242        -3.40080
   N       18.71466        -4.96758        -2.88730
   C       17.80157        -2.36557        -4.69873
   N       18.46274        -1.55579        -5.17385
   C       14.95396        -4.52121        -3.31983
   C       13.56798        -4.20516        -3.40610
   C       13.38955        -2.98398        -4.21263
   O       12.34521        -2.41605        -4.44624
   C       12.61353        -4.98339        -2.81689
   C       13.00751        -6.14086        -2.10909
   C       14.39170        -6.46884        -2.02586
   C       15.35801        -5.64026        -2.63992
   C       14.77357        -7.63133        -1.32521
   C       13.83493        -8.43256        -0.73460
   C       12.47228        -8.10831        -0.81634
   C       12.06755        -6.98677        -1.48801
   H        3.95584         4.02968         4.29116
   H        3.80182         0.56558         0.70521
   H        6.10370        -0.02954         1.18680
   H        8.16718         0.28579         2.49218
   H        8.26145         1.97780         4.27949
   H        6.29291         3.37445         4.77181
   H       -0.65511         4.80791         1.87722
   H       -3.04726         3.57071        -3.41507
   H        2.02863         3.31372        -4.79937
   H        3.68622         3.12420        -2.21427
   H        6.06794         2.66953        -2.57969
   H        8.96738         2.34368        -4.17983
   H        6.83913         2.98158        -7.77826
   H        3.96850         3.27295        -6.19579
   H       10.35697         2.37125        -6.41227
   H        8.62975         2.92866        -8.87938
   H       13.93793         3.13275       -11.45124
   H       15.50461         0.00963        -7.57976
   H       13.04554        -0.88337        -5.93489
   H       16.05713        -1.55594        -5.95323
   H       11.56865        -4.72174        -2.89569
   H       16.39709        -5.91867        -2.56385
   H       15.82391        -7.87595        -1.26467
   H       14.13711        -9.32140        -0.20133
   H       11.74498        -8.75246        -0.34512
   H       11.01965        -6.73295        -1.55495
*
