# ORCA input file
# SCF done       -206.401667779631          0.000595373472
! CAM-B3LYP def2-SVP def2/J RIJCOSX Grid4 TightSCF
%maxcore 5000
%tddft
    Mode sTDDFT
    Ethresh 5.0
    maxcore 5000
end

%pal
  nprocs 6
  end
* xyz 0 1
   C        9.27985         0.61879        -3.58320
   C        8.49478        -0.45082        -3.89568
   C        8.59725        -0.78126        -5.28630
   C        9.45491         0.00214        -5.98500
   S       10.15395         1.19059        -4.95426
   C        7.63562        -1.82698        -5.59682
   O        7.42060        -2.33081        -6.69382
   C        6.95418        -2.14192        -4.32739
   C        7.49986        -1.32918        -3.27014
   C        7.16782        -1.31108        -1.92588
   N        7.85508        -0.55705        -0.94051
   O        7.22993        -0.22333         0.05235
   O        9.02220        -0.25450        -1.12879
   N        6.06033        -2.03969        -1.35903
   O        5.00728        -2.04086        -1.96150
   O        6.27111        -2.62309        -0.31863
   C        5.94726        -3.11237        -4.32520
   N        5.50287        -3.58738        -5.49066
   C        4.60478        -4.57796        -5.75177
   S        3.82140        -4.48367        -7.30522
   C        2.86172        -5.86093        -6.89216
   N        1.91996        -6.31848        -7.83534
   O        1.26155        -7.29400        -7.54142
   O        1.83511        -5.68527        -8.86851
   C        3.13020        -6.35463        -5.64943
   C        4.16065        -5.65379        -4.97666
   C        4.62238        -6.13168        -3.70422
   C        5.80133        -5.98556        -3.06104
   C        7.03540        -5.38128        -3.45943
   C        7.59131        -5.33792        -4.76276
   C        8.84182        -4.68041        -5.03289
   N        9.33096        -4.65959        -6.27107
   C        8.66107        -5.24290        -7.24506
   C        7.42608        -5.89814        -6.97904
   N        6.92613        -5.93529        -5.76398
   C        6.68384        -6.50927        -8.02190
   N        6.07532        -6.98208        -8.86873
   C        9.19352        -5.20860        -8.55661
   N        9.60489        -5.19703        -9.62554
   C        9.58590        -3.99134        -4.01184
   C        9.09343        -4.17505        -2.69491
   C        7.87536        -4.88865        -2.43286
   N        7.61330        -4.95724        -1.12683
   S        8.75066        -4.19984        -0.29947
   N        9.65271        -3.75919        -1.55878
   C       10.66998        -3.20101        -4.40615
   C       11.40943        -2.28309        -3.68141
   C       12.33483        -1.38377        -4.27363
   C       12.79645        -0.41238        -3.43093
   C       12.26408        -0.52855        -2.13346
   S       11.23561        -1.92885        -1.99169
   C       12.29736         0.33233        -1.04223
   C       12.78719         1.65249        -0.91856
   C       12.36527         2.28052         0.21838
   C       11.51344         1.48458         1.02608
   S       11.40485        -0.13146         0.36887
   C       10.70790         1.87517         2.07632
   C        9.70818         1.01659         2.54655
   C        8.70561         1.33572         3.42596
   C        7.58372         0.49188         3.77457
   C        7.33025        -0.77727         3.31474
   C        6.19907        -1.53559         3.68569
   N        5.31031        -2.20262         3.97269
   C        8.13052        -1.52953         2.43181
   N        8.71543        -2.23732         1.74006
   C        6.73746         1.24975         4.69203
   C        7.31758         2.52650         4.90382
   C        8.56373         2.63469         4.12153
   O        9.31071         3.59001         4.06549
   C        6.74851         3.47398         5.71936
   C        5.54784         3.14921         6.35925
   C        4.97570         1.87261         6.14312
   C        5.55150         0.91406         5.31795
   S        3.49370         1.67891         7.02825
   C        3.65912         3.29327         7.66633
   C        4.76732         3.94551         7.24071
  Br        2.35524         3.96508         8.83428
   H        9.43068         1.12141        -2.65055
   H        9.70300        -0.03571        -7.02663
   H        5.40308        -3.41127        -3.44407
   H        5.96792        -3.17030        -6.31604
   H        2.62619        -7.21532        -5.24733
   H        3.87860        -6.73054        -3.19364
   H        5.83841        -6.33911        -2.03737
   H       10.89601        -3.25949        -5.46461
   H       12.59699        -1.45811        -5.31457
   H       13.47528         0.37068        -3.71836
   H       13.39067         2.11189        -1.68117
   H       12.58895         3.30168         0.47141
   H       10.77868         2.87988         2.46723
   H        9.68710         0.02661         2.10902
   H        7.21424         4.43710         5.85805
   H        5.07481        -0.04246         5.18538
   H        5.02446         4.94666         7.53487
*
