# ORCA input file
# SCF done       -224.205345063603          0.000659017372
! CAM-B3LYP def2-SVP def2/J RIJCOSX Grid4 TightSCF
%maxcore 5000
%tddft
    Mode sTDDFT
    Ethresh 5.0
    maxcore 5000
end

%pal
  nprocs 6
  end
* xyz 0 1
   C       -5.80849        -0.92374         4.27343
   C       -4.55607        -1.42053         4.03047
   C       -4.02435        -2.56538         4.66069
   N       -3.54453        -3.49057         5.14122
   C       -3.61668        -0.82571         3.16062
   N       -2.79284        -0.38065         2.49674
   C       -6.76154        -1.42785         5.24992
   C       -7.85931        -0.53220         5.31963
   C       -8.92775        -0.73872         6.15965
   C       -8.91123        -1.87629         6.97162
   C       -7.81148        -2.76588         6.89326
   C       -6.73253        -2.56058         6.04192
   S       -8.00897        -4.10570         7.97726
   C       -9.52672        -3.47686         8.51747
   C       -9.87789        -2.31801         7.91820
   C       -7.66519         0.57141         4.36478
   O       -8.44986         1.46254         4.12406
   C       -6.37313         0.27626         3.67819
   C       -5.93632         0.90158         2.55626
   C       -6.42132         2.16553         2.08918
   C       -6.59436         2.40973         0.71105
   C       -7.15738         3.64204         0.22626
   N       -7.21653         3.87937        -1.09332
   C       -6.85050         2.93810        -1.92530
   C       -6.41402         1.65802        -1.44018
   N       -6.27405         1.43575        -0.15969
   C       -6.10442         0.62527        -2.36223
   N       -5.86889        -0.18526        -3.13587
   C       -6.86650         3.20197        -3.31812
   N       -6.86196         3.38034        -4.44915
   C       -7.60464         4.64699         1.11130
   C       -7.30284         4.46475         2.47224
   C       -6.71114         3.23590         2.95353
   N       -6.48342         3.28331         4.26752
   S       -7.01013         4.68145         4.83507
   N       -7.52402         5.32893         3.46556
   C       -8.28781         5.81951         0.65216
   O       -8.06917         6.97039         1.29572
   C       -8.76309         7.95366         0.69468
   C       -9.48160         7.41942        -0.38198
   C       -9.18590         6.03090        -0.39444
   C       -9.89943         4.97397        -1.16416
   F       -9.81171         3.76193        -0.59623
   F      -11.22320         5.22710        -1.22989
   F       -9.49488         4.82976        -2.43760
   O      -10.23965         8.17495        -1.19074
   C      -10.47175         7.75507        -2.52789
   C       -8.67899         9.29212         1.21764
   C       -9.54535        10.29876         0.76544
   C       -9.44392        11.55430         1.31126
   C       -8.47673        11.83872         2.29283
   C       -7.61572        10.84491         2.74146
   C       -7.72715         9.57863         2.20853
   C       -8.60822        13.22534         2.68009
   C       -9.67062        13.79384         1.95402
   C      -10.28262        12.77628         1.02029
   C      -10.15345        13.21044        -0.45166
   C       -8.71110        13.47516        -0.86612
   C      -11.76510        12.52478         1.35610
   C      -11.98124        12.09160         2.80109
   C      -10.03204        15.10155         2.16129
   C       -9.31983        15.88156         3.08703
   C       -8.25348        15.30449         3.79143
   C       -7.89890        13.98596         3.60073
   C       -9.74383        17.23770         3.32721
   C       -9.01397        18.21187         3.91136
   C       -9.47682        19.54088         4.13517
   C      -10.73852        19.98471         4.37311
   C      -11.97749        19.31047         4.71224
   C      -12.11161        18.13222         5.39909
   C      -13.35175        17.58109         5.78091
   N      -14.33336        17.07655         6.09701
   C      -11.03332        17.36275         5.88034
   N      -10.20631        16.71178         6.33867
   C      -13.06573        20.23959         4.42793
   C      -12.51551        21.51923         4.15723
   C      -11.04468        21.43284         4.19439
   O      -10.24176        22.32825         4.06243
   C      -13.29955        22.61798         3.89900
   C      -14.68693        22.44522         3.89645
   C      -15.22486        21.16017         4.14956
   C      -14.43406        20.04955         4.41849
   S      -16.95886        21.18031         4.08313
   C      -16.94986        22.87405         3.73240
   C      -15.71056        23.40655         3.66272
   H       -9.75033        -0.04103         6.18891
   H       -5.92297        -3.27072         6.00950
   H      -10.07221        -4.02384         9.26174
   H      -10.78712        -1.78373         8.12645
   H       -5.20677         0.42098         1.91657
   H      -10.67614         8.66792        -3.08628
   H      -11.33923         7.09648        -2.59441
   H       -9.59554         7.26052        -2.95057
   H      -10.28370        10.06842         0.01604
   H       -6.87718        11.05690         3.49943
   H       -7.08074         8.78462         2.54832
   H      -10.74618        14.11501        -0.60274
   H      -10.57369        12.42517        -1.08295
   H       -8.27536        14.26709        -0.26080
   H       -8.67210        13.77930        -1.90945
   H       -8.10647        12.57911        -0.74596
   H      -12.14693        11.75267         0.68537
   H      -12.32650        13.44165         1.16495
   H      -11.45415        11.16282         3.00710
   H      -13.04075        11.93440         2.98812
   H      -11.62060        12.85138         3.49108
   H      -10.85606        15.54245         1.61799
   H       -7.72924        15.89332         4.52679
   H       -7.08853        13.55082         4.16547
   H      -10.73367        17.48615         2.96018
   H       -7.97669        18.03057         4.15622
   H       -8.73087        20.32723         4.05987
   H      -12.85488        23.58197         3.70663
   H      -14.88784        19.08926         4.60009
   H      -17.88947        23.37355         3.59724
   H      -15.51098        24.44198         3.45422
*
