# ORCA input file
# SCF done       -206.779352010690          0.000872290506
! CAM-B3LYP def2-SVP def2/J RIJCOSX Grid4 TightSCF
%maxcore 5000
%tddft
    Mode sTDDFT
    Ethresh 5.0
    maxcore 5000
end

%pal
  nprocs 6
  end
* xyz 0 1
   C       -4.49734         1.76528         0.25611
   C       -4.52031         0.57017         0.92424
   C       -3.38019        -0.22222         1.17073
   N       -2.48666        -0.89740         1.42124
   C       -5.68574         0.00212         1.47713
   N       -6.61324        -0.49059         1.94113
   C       -3.31919         2.39148        -0.33507
   C       -3.68605         3.65766        -0.86003
   C       -2.79164         4.48372        -1.49894
   C       -1.47901         4.02890        -1.65378
   C       -1.13092         2.75004        -1.15570
   C       -2.02804         1.92602        -0.48624
   S        0.52208         2.36225        -1.50494
   C        0.72353         3.89961        -2.29726
   C       -0.38906         4.67110        -2.29994
  Br        2.37929         4.34731        -3.03798
   C       -5.12576         3.85016        -0.67025
   O       -5.79770         4.81444        -1.03100
   C       -5.61827         2.64408         0.00285
   C       -6.95652         2.44563         0.23937
   N       -7.84358         3.35114        -0.18682
   C       -9.19971         3.31721        -0.12418
   S      -10.06135         2.40799         1.07308
   C      -11.54446         3.10473         0.49915
   N      -12.73484         2.71653         1.12908
   O      -13.77169         3.21223         0.73068
   O      -12.63705         1.91028         2.03668
   C      -11.37867         3.97851        -0.54367
   C      -10.03487         4.09600        -0.93803
   C       -9.54855         4.89042        -2.04134
   C       -8.46839         4.51861        -2.75829
   C       -7.75065         5.29510        -3.71793
   C       -6.47661         4.84143        -4.12160
   C       -5.60686         5.62903        -4.96366
   N       -4.33488         5.23488        -5.14464
   C       -3.92855         4.10273        -4.62719
   C       -4.83889         3.25278        -3.91503
   N       -6.06184         3.64524        -3.66758
   C       -4.40133         2.00241        -3.41889
   N       -4.00681         1.01274        -2.99552
   C       -2.57294         3.71886        -4.74587
   N       -1.48095         3.37166        -4.79259
   C       -6.02974         6.84959        -5.53503
   C       -7.31266         7.28963        -5.14807
   C       -8.15240         6.53812        -4.23891
   N       -9.31549         7.15303        -4.01389
   S       -9.36188         8.51439        -4.86462
   N       -7.92009         8.41010        -5.55379
   C       -5.19824         7.61143        -6.44599
   C       -5.28024         9.01388        -6.46089
   C       -4.50438         9.73072        -7.33472
   C       -3.65910         9.06901        -8.24767
   C       -3.56839         7.68235        -8.23902
   C       -4.32769         6.96759        -7.33816
   C       -3.06040        10.05070        -9.11682
   C       -3.54120        11.32301        -8.75266
   C       -4.42738        11.22731        -7.52894
   C       -5.80996        11.85532        -7.75362
   C       -6.53234        11.25131        -8.95227
   C       -3.66684        11.91668        -6.37074
   C       -4.28816        11.76543        -4.98863
   C       -3.17054        12.43535        -9.46093
   C       -2.29737        12.31319       -10.55970
   C       -1.81330        11.03635       -10.89606
   C       -2.18681         9.91446       -10.19045
   C       -1.96410        13.50167       -11.28815
   C       -1.06451        13.61279       -12.30214
   C       -0.76479        14.78030       -13.03646
   C       -1.35505        16.01908       -13.00293
   C       -0.96042        17.11498       -13.81916
   C       -1.69840        18.24343       -13.65780
   C       -2.73276        18.11889       -12.69812
   S       -2.71532        16.50800       -12.00677
   C       -3.65332        19.06438       -12.31326
   C       -3.77452        20.39882       -12.79391
   C       -4.78564        21.10132       -12.23780
   C       -5.54980        20.37299       -11.26557
   S       -4.88582        18.73834       -11.11224
   C       -6.60378        20.80336       -10.55930
   H       -3.09640         5.44705        -1.88044
   H       -1.71501         0.95983        -0.12817
   H       -0.44387         5.64468        -2.75152
   H       -7.34112         1.55773         0.72450
   H       -7.41251         4.15852        -0.67724
   H      -12.20090         4.48475        -1.01603
   H      -10.07663         5.80276        -2.27549
   H       -8.02420         3.54675        -2.59369
   H       -5.95677         9.50729        -5.78357
   H       -2.92978         7.16828        -8.94140
   H       -4.28516         5.89039        -7.34785
   H       -5.68835        12.93008        -7.90383
   H       -6.41997        11.70504        -6.86247
   H       -5.95142        11.38731        -9.86199
   H       -7.49939        11.73021        -9.08678
   H       -6.69387        10.18621        -8.80237
   H       -3.58647        12.97870        -6.61324
   H       -2.65334        11.50732        -6.34507
   H       -5.30253        12.15444        -4.96400
   H       -3.69615        12.32353        -4.26620
   H       -4.30099        10.72349        -4.68095
   H       -3.54321        13.41404        -9.19431
   H       -1.14501        10.92708       -11.73587
   H       -1.81118         8.94178       -10.47106
   H       -2.48949        14.38893       -10.96398
   H       -0.49478        12.74025       -12.59196
   H        0.04163        14.68871       -13.75444
   H       -0.13716        17.02390       -14.50608
   H       -1.53391        19.15660       -14.20084
   H       -3.10322        20.78788       -13.53875
   H       -5.03148        22.12093       -12.47569
   H       -6.97646        21.80458       -10.68450
   H       -7.10782        20.17032        -9.85231
*
