# ORCA input file
# SCF done       -197.359579290164          0.000365761656
! CAM-B3LYP def2-SVP def2/J RIJCOSX Grid4 TightSCF
%maxcore 5000
%tddft
    Mode sTDDFT
    Ethresh 5.0
    maxcore 5000
end

%pal
  nprocs 6
  end
* xyz 0 1
   C       -3.81670         3.17255        -5.82143
   C       -3.82431         1.80132        -5.95538
   C       -3.09873         1.09859        -6.93633
   N       -2.53502         0.45832        -7.70669
   C       -4.54589         0.89298        -5.15763
   N       -5.09150         0.06900        -4.56909
   C       -3.05935         4.09203        -6.67001
   C       -3.32079         5.41747        -6.24658
   C       -2.74709         6.51288        -6.84170
   C       -1.86788         6.29104        -7.90813
   C       -1.61337         4.96463        -8.32470
   C       -2.19693         3.85541        -7.72264
   S       -0.49467         4.91580        -9.65456
   C       -0.38557         6.65582        -9.63042
   C       -1.14686         7.24467        -8.67854
  Br        0.72505         7.53062       -10.86433
   C       -4.26019         5.38571        -5.10398
   O       -4.69666         6.35195        -4.50787
   C       -4.53301         3.95903        -4.85437
   C       -5.32396         3.47924        -3.82659
   C       -5.99436         4.26342        -2.89717
   C       -6.72260         3.72289        -1.85130
   C       -7.41294         4.42780        -0.84187
   C       -8.00998         3.62666         0.09076
   C       -7.82010         2.25124        -0.14377
   S       -6.87270         2.00072        -1.59215
   C       -8.25013         1.17324         0.61448
   C       -8.96198         1.17479         1.83249
   C       -9.18038        -0.07188         2.33971
   C       -8.66137        -1.12451         1.54659
   S       -7.88670        -0.46047         0.12051
   C       -8.72650        -2.46434         1.84755
   C       -8.25920        -3.53322         1.07386
   S       -7.58696        -3.28997        -0.53189
   C       -7.24300        -4.97973        -0.71038
   N       -6.74496        -5.37834        -1.89376
   C       -6.58222        -6.72620        -2.37227
   C       -7.62822        -5.71854         0.41856
   C       -8.20018        -4.88111         1.41439
   C       -8.44121        -5.36813         2.79500
   O       -7.67832        -6.09306         3.38379
   O       -9.56847        -4.88359         3.32515
   C       -9.88256        -5.32872         4.63862
   C       -7.43701        -7.13314         0.55068
   C       -8.26385        -8.01857         1.17288
   C       -7.99274        -9.40018         1.37816
   C       -8.97403       -10.07398         2.03126
   C      -10.08527        -9.26876         2.38201
   S       -9.86700        -7.64000         1.79617
   C      -11.18934        -9.63431         3.12920
   C      -11.50958       -10.91082         3.63656
   C      -12.64690       -10.93316         4.38906
   C      -13.27961        -9.67674         4.51886
   S      -12.39023        -8.46136         3.63509
   C      -14.40697        -9.40308         5.26947
   C      -14.98124        -8.14258         5.37455
   C      -16.04008        -7.76282         6.17347
   C      -16.67577        -8.41245         7.28484
   C      -16.11207        -9.32541         8.14835
   C      -14.75693        -9.70703         8.12587
   N      -13.65183       -10.01442         8.19274
   C      -16.79205        -9.90011         9.23842
   N      -17.30276       -10.41977        10.12687
   C      -17.96946        -7.76001         7.49095
   C      -18.03204        -6.61192         6.66269
   C      -16.79716        -6.53657         5.85039
   O      -16.48621        -5.66997         5.05982
   C      -19.11031        -5.76284         6.66000
   C      -20.18368        -6.06703         7.50576
   C      -20.11670        -7.22251         8.31723
   C      -19.02037        -8.07799         8.32740
   S      -21.55373        -7.41551         9.27570
   C      -22.21370        -5.95688         8.58498
   C      -21.40322        -5.35647         7.68233
  Br      -23.91217        -5.36559         9.12039
   H       -2.96570         7.51070        -6.49482
   H       -1.96762         2.86466        -8.07744
   H       -1.19862         8.30689        -8.52320
   H       -5.42291         2.40557        -3.71883
   H       -5.93691         5.33930        -2.97552
   H       -7.44246         5.50276        -0.83087
   H       -8.57325         3.99104         0.93110
   H       -9.28377         2.08585         2.30364
   H       -9.69979        -0.27127         3.26023
   H       -9.20301        -2.72931         2.78058
   H       -6.53042        -4.63912        -2.54580
   H       -5.61013        -7.13926        -2.08844
   H       -6.64750        -6.72215        -3.45892
   H       -7.37090        -7.36381        -1.97229
   H       -9.04069        -5.15471         5.31148
   H      -10.11179        -6.39604         4.62629
   H      -10.75532        -4.76195         4.95140
   H       -6.52662        -7.54188         0.13598
   H       -7.06448        -9.83744         1.05540
   H       -8.92527       -11.11585         2.29096
   H      -10.90052       -11.77370         3.43621
   H      -13.04244       -11.80916         4.87093
   H      -14.85358       -10.24109         5.78461
   H      -14.61955        -7.37160         4.70016
   H      -19.12840        -4.89014         6.02616
   H      -19.01649        -8.94908         8.96138
   H      -21.65259        -4.45043         7.16082
*
