# ORCA input file
# SCF done       -207.707603821450          0.000932117792
! CAM-B3LYP def2-SVP def2/J RIJCOSX Grid4 TightSCF
%maxcore 5000
%tddft
    Mode sTDDFT
    Ethresh 5.0
    maxcore 5000
end

%pal
  nprocs 6
  end
* xyz 0 1
   C       -1.97326        -1.87858         1.14681
   C       -1.93889        -3.07546         1.81207
   C       -0.76154        -3.81079         2.06063
   N        0.16417        -4.44760         2.29481
   C       -3.08017        -3.70419         2.35064
   N       -3.98741        -4.24011         2.80582
   C       -0.82491        -1.16947         0.59066
   C       -1.26484         0.07134         0.05782
   C       -0.41502         0.95759        -0.55995
   C        0.93035         0.59978        -0.66965
   C        1.36453        -0.63461        -0.12782
   C        0.50658        -1.52769         0.50533
   S        3.06546        -0.87048        -0.37554
   C        3.16510         0.66486        -1.20110
   C        1.98610         1.32555        -1.28395
  Br        4.81598         1.24445        -1.86839
   C       -2.70776         0.18104         0.24576
   O       -3.43125         1.12407        -0.07763
   C       -3.14306        -1.06833         0.88132
   C       -4.47336        -1.35301         1.06860
   N       -5.38527        -0.45051         0.68258
   C       -6.73400        -0.51963         0.68565
   S       -7.62380        -1.77429         1.47735
   C       -9.10107        -1.00284         0.98100
   N      -10.30841        -1.61267         1.35704
   O      -11.34216        -1.07361         1.01390
   O      -10.22180        -2.64110         2.00240
   C       -8.91704         0.13951         0.25202
   C       -7.55385         0.44116         0.05991
   C       -6.99699         1.51567        -0.69681
   C       -7.65138         2.55664        -1.26447
   C       -6.98495         3.57380        -2.00887
   C       -5.66059         3.47830        -2.50918
   C       -4.96901         4.61938        -3.05507
   N       -3.66099         4.53545        -3.30567
   C       -3.03379         3.39104        -3.14435
   C       -3.77643         2.20714        -2.84091
   N       -5.04304         2.28747        -2.52013
   C       -3.14548         0.94012        -2.88100
   N       -2.58999        -0.06231        -2.90010
   C       -1.62660         3.32914        -3.25194
   N       -0.48502         3.21905        -3.27532
   C       -5.61462         5.87962        -3.27277
   C       -6.97623         5.92715        -2.87911
   C       -7.63528         4.80301        -2.26037
   N       -8.90288         5.08166        -1.95415
   S       -9.24375         6.58263        -2.40323
   N       -7.79698         6.96396        -3.00148
   C       -4.86267         6.92585        -3.81922
   C       -5.13525         8.27062        -3.97410
   C       -4.19833         9.17476        -4.53442
   C       -4.58363        10.48250        -4.50187
   C       -5.84443        10.66797        -3.90147
   S       -6.55290         9.13996        -3.44435
   C       -6.49312        11.86790        -3.63451
   C       -6.07295        13.17533        -3.94965
   C       -6.91868        14.14691        -3.49527
   C       -8.04169        13.64934        -2.79858
   S       -7.99776        11.90286        -2.75285
   C       -9.02297        14.39610        -2.17506
   C      -10.09879        13.83393        -1.49366
   C      -11.05060        14.47866        -0.73700
   C      -11.10879        15.80990        -0.19663
   C      -10.04262        16.61639         0.12846
   C      -10.17329        17.89811         0.69826
   N      -10.22201        18.95660         1.14143
   C       -8.69309        16.22087         0.04349
   N       -7.58008        15.93746         0.04117
   C      -12.50031        16.07057         0.16971
   C      -13.23344        14.86226         0.05356
   C      -12.33967        13.80197        -0.45562
   O      -12.60315        12.63483        -0.64586
   C      -14.56671        14.77530         0.36982
   C      -15.21064        15.93740         0.81000
   C      -14.47351        17.14111         0.90804
   C      -13.12109        17.22753         0.59664
   S      -15.46575        18.45546         1.46040
   C      -16.83842        17.38418         1.55580
   C      -16.56975        16.10800         1.19106
  Br      -18.49592        18.05305         2.12416
   H       -0.76932         1.89363        -0.96032
   H        0.88332        -2.45910         0.89443
   H        1.85217         2.27503        -1.76964
   H       -4.82746        -2.28496         1.48987
   H       -4.94942         0.40288         0.27954
   H       -9.73627         0.71957        -0.13124
   H       -5.92801         1.48793        -0.84191
   H       -8.71052         2.71171        -1.11624
   H       -3.87002         6.62534        -4.13530
   H       -3.26091         8.82925        -4.93328
   H       -3.99033        11.29852        -4.87268
   H       -5.16798        13.36884        -4.49651
   H       -6.76177        15.20258        -3.62512
   H       -8.93273        15.47038        -2.24562
   H      -10.26552        12.76783        -1.61999
   H      -15.09823        13.84085         0.28145
   H      -12.60248        18.16790         0.68336
   H      -17.29855        15.31821         1.18985
*
