# ORCA input file
# SCF done       -131.850384197677          0.000216357878
! CAM-B3LYP def2-SVP def2/J RIJCOSX Grid4 TightSCF
%maxcore 5000
%tddft
    Mode sTDDFT
    Ethresh 5.0
    maxcore 5000
end

%pal
  nprocs 6
  end
* xyz 0 1
   C        3.56895       -16.91706         2.71582
   C        4.15079       -15.77971         3.11596
   C        4.89173       -15.55117         4.32574
   C        5.36034       -14.29400         4.46439
   C        5.03533       -13.42318         3.38156
   S        4.10058       -14.28081         2.17309
   C        5.36747       -12.10086         3.24843
   C        6.10672       -11.28889         4.15423
   C        6.26635       -10.00979         3.74878
   C        5.66743        -9.71665         2.48144
   S        4.89444       -11.16383         1.84247
   C        5.64961        -8.49827         1.89626
   N        5.09753        -8.20866         0.65382
   C        5.26433        -8.92094        -0.53297
   S        6.28311       -10.19807        -0.71475
   C        4.50753        -8.26476        -1.54696
   C        3.93777        -7.15213        -0.99433
   C        4.32500        -7.11210         0.41442
   S        3.88416        -5.95168         1.48954
   N        3.15163        -6.15457        -1.46468
   C        2.65679        -5.96258        -2.70951
   S        2.99871        -7.05384        -4.00944
   C        2.04016        -6.07007        -5.06895
   N        1.92780        -6.48344        -6.39939
   O        1.25549        -5.80543        -7.15341
   O        2.52121        -7.50585        -6.70351
   C        1.49620        -4.97421        -4.45402
   C        1.83683        -4.88805        -3.09163
   C        1.42572        -3.85331        -2.17816
   C        0.68052        -2.80059        -2.54338
   N        0.25406        -1.76147        -1.74422
   C       -0.50424        -0.70586        -2.28401
   S       -0.97132        -0.61751        -3.86488
   C       -0.76922         0.21285        -1.25299
   C       -0.19563        -0.25386        -0.08460
   C        0.45370        -1.52483        -0.41188
   S        1.26931        -2.46416         0.66482
   C       -0.15615         0.27569         1.21381
   C       -0.66581         1.47509         1.64442
   C       -0.58478         1.96667         2.97456
   C       -1.13969         3.19405         3.15582
   C       -1.69453         3.74934         1.97712
   S       -1.49002         2.64150         0.63448
   C       -2.31059         4.97112         1.82166
   C       -2.53150         5.95849         2.82544
   C       -3.15426         7.07112         2.38025
   C       -3.47690         7.04883         0.98145
   S       -2.93295         5.51406         0.28350
   C       -4.08617         8.00195         0.26404
   H        3.62261       -17.80463         3.32136
   H        3.03459       -16.98191         1.78580
   H        5.03812       -16.34577         5.03581
   H        5.93451       -13.94884         5.30581
   H        6.49266       -11.68334         5.07711
   H        6.79295        -9.25010         4.29802
   H        6.03112        -7.63743         2.42911
   H        4.46727        -8.62147        -2.55564
   H        2.91697        -5.46623        -0.74585
   H        0.87740        -4.27507        -4.98509
   H        1.74651        -3.94593        -1.15339
   H        0.34217        -2.67500        -3.56345
   H       -1.33470         1.11030        -1.40267
   H        0.34937        -0.33474         1.95245
   H       -0.11315         1.38980         3.75019
   H       -1.16321         3.71413         4.09635
   H       -2.21691         5.80392         3.84201
   H       -3.40422         7.92284         2.98736
   H       -4.39995         8.92161         0.72574
   H       -4.27996         7.88214        -0.78627
*
