# ORCA input file
# SCF done       -308.644681873483          0.000591321810
! CAM-B3LYP def2-SVP def2/J RIJCOSX Grid4 TightSCF
%maxcore 5000
%tddft
    Mode sTDDFT
    Ethresh 5.0
    maxcore 5000
end

%pal
  nprocs 6
  end
* xyz 0 1
   C        2.39422        -4.05216         2.01808
   C        3.38876        -3.19516         2.46056
   C        4.33767        -3.68420         3.36062
   C        5.36403        -2.82384         3.82378
   N        6.19180        -2.12402         4.19188
   C        4.29595        -5.01564         3.81714
   C        5.27142        -5.48172         4.73091
   N        6.05166        -5.87944         5.46876
   C        3.29326        -5.87632         3.36832
   C        2.36369        -5.38137         2.47922
   C        1.22136        -6.09119         1.86224
   O        0.92006        -7.25090         2.05516
   C        0.56568        -5.10965         0.98505
   C        1.27697        -3.84880         1.09349
   C        0.97955        -2.66327         0.47435
   C        1.72470        -1.47485         0.63792
   N        2.28544        -0.47798         0.72970
   C       -0.10158        -2.43632        -0.40479
   N       -0.95447        -2.16175        -1.12305
   C       -0.51631        -5.34559         0.17798
   C       -1.28465        -6.50950        -0.00765
   C       -2.33330        -6.54795        -0.91411
   C       -2.99744        -7.77924        -0.97035
   C       -4.08663        -8.15150        -1.80029
   C       -4.58030        -7.26371        -2.82852
   C       -3.85597        -6.45695        -3.66231
   C       -4.66718        -5.72740        -4.55607
   C       -6.00690        -5.95713        -4.41703
   S       -6.28522        -7.11234        -3.16041
   C       -7.13532        -5.35470        -5.16906
  Cl       -4.00874        -4.64471        -5.72172
   C       -4.62666        -9.40792        -1.57228
   C       -4.10795       -10.31796        -0.61242
   C       -2.97432        -9.97838         0.15168
   C       -2.46032        -8.69764        -0.02712
   S       -1.10046        -8.03753         0.82942
   C       -2.37435       -10.93303         1.06090
   C       -2.17969       -12.27054         0.85854
   C       -1.56005       -12.90185         1.95757
   C       -1.28160       -12.06844         3.00258
   S       -1.78324       -10.45542         2.62794
   C       -0.64080       -12.38832         4.30264
  Cl       -1.19709       -14.58594         1.96259
   C       -4.86685       -11.50931        -0.55566
   C       -5.89112       -11.55097        -1.45700
   S       -5.98363       -10.09627        -2.42542
   C       -6.82943       -12.60424        -1.65217
   C       -7.79501       -12.69538        -2.61124
   C       -8.56584       -13.88021        -2.53058
   C       -9.64476       -14.26924        -3.35020
   C      -10.14525       -13.39182        -4.38867
   C      -10.33245       -12.04040        -4.32795
   C      -10.82104       -11.50404        -5.53880
   C      -11.00921       -12.42405        -6.52892
   S      -10.58351       -14.00316        -5.96059
   C      -11.49118       -12.21277        -7.91697
  Cl      -11.14460        -9.82343        -5.73168
   C      -10.19615       -15.51936        -3.09557
   C       -9.76332       -16.36041        -2.03927
   C       -8.71566       -15.95210        -1.18895
   C       -8.12912       -14.72390        -1.47927
   S       -6.81244       -14.00121        -0.59692
   C       -8.28089       -16.73623        -0.05169
   C       -7.01224       -16.88444         0.43288
   C       -6.96289       -17.65849         1.61188
   C       -8.17770       -18.10084         2.04912
   S       -9.42358       -17.56093         0.97698
   C       -8.49603       -18.91532         3.24854
  Cl       -5.48302       -18.00295         2.42143
   C      -10.49069       -17.57326        -2.00548
   C      -11.45903       -17.65881        -2.96291
   S      -11.51763       -16.23420        -3.97701
   C      -12.35404       -18.74317        -3.18740
   C      -13.32366       -18.84091        -4.14428
   C      -14.04482       -20.05541        -4.09901
   C      -15.12274       -20.45870        -4.91590
   C      -15.59683       -19.68089        -6.04064
   C      -16.87976       -19.57118        -6.49942
   C      -16.97337       -18.81642        -7.68778
   C      -15.77879       -18.35112        -8.15666
   S      -14.49793       -18.84289        -7.10346
   C      -15.50647       -17.55054        -9.37616
  Cl      -18.47784       -18.52275        -8.47134
   C      -15.68883       -21.69324        -4.62070
   C      -15.22256       -22.54569        -3.58768
   C      -14.15832       -22.13036        -2.75600
   C      -13.59255       -20.89610        -3.04912
   S      -12.28474       -20.15964        -2.16595
   C      -13.70700       -22.95447        -1.65639
   C      -14.47234       -23.67224        -0.77958
   C      -13.69998       -24.36437         0.17612
   C      -12.35129       -24.19257         0.04125
   S      -12.01451       -23.14055        -1.28959
   C      -11.25700       -24.78740         0.84834
  Cl      -14.41101       -25.33806         1.40594
   C      -15.88911       -23.78806        -3.58823
   C      -16.83194       -23.91620        -4.57776
   S      -16.98082       -22.43804        -5.51452
   C      -17.66973       -25.03912        -4.78543
   C      -18.42691       -25.34009        -5.87515
   C      -19.58590       -26.26068        -5.74522
   O      -19.82772       -27.01316        -4.83271
   C      -20.41270       -25.99978        -6.94943
   C      -21.66242       -26.49341        -7.25768
   C      -22.26336       -26.06982        -8.44471
   C      -21.59901       -25.16086        -9.29101
   C      -20.32791       -24.67654        -8.97651
   C      -19.73538       -25.10347        -7.80104
   C      -18.42440       -24.81218        -7.22364
   C      -17.32501       -24.39179        -7.92193
   C      -16.01456       -24.45675        -7.39766
   N      -14.93424       -24.56623        -7.02705
   C      -17.36446       -23.95119        -9.26050
   N      -17.35707       -23.56605       -10.34117
   C      -22.23432       -24.72917       -10.48192
   N      -22.74425       -24.37223       -11.44270
   C      -23.54783       -26.55080        -8.79555
   N      -24.58871       -26.94824        -9.05997
   H        3.45707        -2.16964         2.13505
   H        3.24498        -6.90032         3.70629
   H       -0.85493        -4.51835        -0.43429
   H       -2.61627        -5.68775        -1.49408
   H       -2.78265        -6.41795        -3.68076
   H       -7.67071        -4.63704        -4.54670
   H       -7.84210        -6.12215        -5.47925
   H       -6.75722        -4.83776        -6.04761
   H       -2.42068       -12.78449        -0.05351
   H       -0.40787       -13.44926         4.34695
   H       -1.30281       -12.13563         5.13011
   H        0.27944       -11.81792         4.42426
   H       -4.68171       -12.30432         0.14333
   H       -7.92607       -11.94383        -3.36808
   H      -10.17487       -11.44798        -3.44581
   H      -11.81156       -11.18140        -8.04156
   H      -12.32658       -12.87542        -8.13750
   H      -10.69809       -12.42311        -8.63454
   H       -6.13248       -16.49518        -0.04412
   H       -7.57863       -19.31485         3.67369
   H       -9.16049       -19.73772         2.98925
   H       -8.99416       -18.30671         4.00385
   H      -10.30417       -18.37082        -1.30996
   H      -13.51318       -18.05087        -4.84734
   H      -17.74045       -19.97000        -5.99543
   H      -16.43960       -17.15961        -9.77435
   H      -15.03419       -18.16824       -10.14068
   H      -14.83577       -16.72332        -9.15088
   H      -15.54668       -23.67208        -0.77741
   H      -11.65401       -25.16062         1.78938
   H      -10.48420       -24.04860         1.04989
   H      -10.79644       -25.61895         0.31375
   H      -15.64144       -24.59697        -2.92542
   H      -17.79254       -25.70026        -3.93317
   H      -22.16300       -27.18688        -6.59910
   H      -19.84523       -23.97790        -9.64198
*
