# ORCA input file
# SCF done       -173.944212648215          0.000848490560
! CAM-B3LYP def2-SVP def2/J RIJCOSX Grid4 TightSCF
%maxcore 5000
%tddft
    Mode sTDDFT
    Ethresh 5.0
    maxcore 5000
end

%pal
  nprocs 6
  end
* xyz 0 1
   C       -1.89094         1.78201         2.57329
   C       -2.23129         1.29022         1.32591
   F       -2.64274         2.13881         0.37776
   C       -2.14293        -0.06473         1.03927
   F       -2.44902        -0.47903        -0.19864
   C       -1.70635        -0.99161         1.99578
   C       -1.37171        -0.47386         3.25533
   C       -1.46017         0.88262         3.53223
   F       -1.12941         1.33005         4.74909
   F       -0.97966        -1.30302         4.23621
   C       -1.59336        -2.41709         1.70758
   C       -0.55709        -3.17137         2.18118
   C       -0.37623        -4.53200         1.91107
   C       -1.26388        -5.24167         0.97797
   C       -2.37221        -4.69548         0.43174
   S       -2.88521        -3.08715         0.71822
   C       -0.68541        -6.52859         0.81433
   C        0.47636        -6.62071         1.58375
   C        1.09568        -7.88433         1.46587
   C        0.40632        -8.69953         0.62576
   S       -1.01582        -7.97732        -0.04970
   C        0.66393        -5.38729         2.29914
   C        1.71608        -5.15215         3.22701
   C        1.64528        -4.31748         4.29288
   C        2.72458        -4.06423         5.18115
   C        4.07516        -4.31506         5.00255
   C        4.83655        -3.89498         6.09137
   C        4.06194        -3.33623         7.12283
   S        2.39931        -3.30214         6.73250
   C        4.92982        -2.93602         8.16996
   C        6.25339        -3.21364         7.78802
   C        6.23871        -3.83569         6.47576
   C        7.31150        -4.27372         5.75491
   C        7.16659        -4.88131         4.49081
   N        7.05103        -5.37742         3.46335
   C        8.63444        -4.15052         6.22741
   N        9.71143        -4.05059         6.60853
   C        7.18973        -2.82963         8.74884
   C        6.59335        -2.28616         9.86943
   S        4.83692        -2.24135         9.72656
   C        7.23638        -1.78349        11.04129
   C        6.56701        -1.54864        12.21519
   C        7.14908        -1.04711        13.38240
   C        8.54181        -0.57044        13.36951
   C        9.39009        -0.73394        12.33128
   S        8.96153        -1.49222        10.85528
   C        8.75187         0.02647        14.64176
   C        7.59352        -0.09351        15.40864
   C        7.74469         0.46839        16.69525
   C        8.98634         0.99319        16.86559
   S       10.02017         0.82290        15.48627
   C        6.59337        -0.79814        14.64797
   C        5.34443        -1.18118        15.20890
   C        4.54931        -2.17517        14.74923
   C        3.30668        -2.63478        15.31189
   C        2.62406        -3.67865        14.65770
   F        3.14489        -4.18189        13.52309
   C        1.43722        -4.20521        15.13498
   F        0.83353        -5.20087        14.47012
   C        0.85950        -3.71898        16.29541
   C        1.50648        -2.68975        16.95548
   C        2.69577        -2.15584        16.48279
   F        3.25778        -1.16162        17.19153
   F        0.96930        -2.19999        18.08245
   H       -1.95898         2.83437         2.79127
   H        0.21432        -2.67072         2.74758
   H       -3.02424        -5.24266        -0.23089
   H        1.99907        -8.17737         1.96900
   H        0.64284        -9.70819         0.34843
   H        2.61104        -5.74275         3.08119
   H        0.70787        -3.83885         4.53970
   H        4.47672        -4.75773         4.10996
   H        8.25401        -2.94746         8.65189
   H        5.50528        -1.75333        12.21124
   H       10.41754        -0.40750        12.36527
   H        6.98296         0.48970        17.45327
   H        9.37844         1.48376        17.73501
   H        5.08200        -0.64924        16.11079
   H        4.87188        -2.73967        13.88776
   H       -0.06206        -4.12810        16.67210
*
