# ORCA input file
# SCF done       -246.976556708992          0.000811130180
! CAM-B3LYP def2-SVP def2/J RIJCOSX Grid4 TightSCF
%maxcore 5000
%tddft
    Mode sTDDFT
    Ethresh 5.0
    maxcore 5000
end

%pal
  nprocs 6
  end
* xyz 0 1
   C       -8.66135         3.06071        -4.69837
   C       -9.94932         3.37076        -4.34774
   C      -11.00492         3.52709        -5.27412
   N      -11.91433         3.67047        -5.95897
   C      -10.45665         3.57494        -3.04598
   N      -10.98190         3.74867        -2.03877
   C       -8.20179         2.81772        -6.05691
   C       -6.82369         2.48698        -6.02150
   C       -6.09883         2.19052        -7.15148
   C       -6.76516         2.22047        -8.37920
   C       -8.14280         2.55362        -8.40822
   C       -8.87400         2.85395        -7.26593
   S       -8.76070         2.52726       -10.02871
   C       -7.20657         2.08003       -10.64033
   C       -6.26142         1.95436        -9.68262
   C       -6.34027         2.51267        -4.63521
   O       -5.20953         2.27791        -4.27150
   C       -7.51775         2.89032        -3.80028
   C       -7.59473         3.08238        -2.45898
   C       -6.65818         2.95723        -1.37930
   C       -5.35126         2.57412        -1.39915
   C       -4.60213         2.49026        -0.18357
   C       -3.26913         2.11028        -0.17775
   C       -2.53692         2.02853         1.01800
   N       -1.94077         1.96578         1.99828
   C       -2.56303         1.78395        -1.34721
   N       -1.96087         1.51004        -2.28603
   C       -5.30547         2.81160         1.01766
   C       -6.61056         3.18931         0.96274
   O       -7.28645         3.27682        -0.20744
   C       -7.41861         3.51867         2.10291
   C       -8.71353         3.95212         2.07403
   C       -9.26303         4.16893         3.35829
   C      -10.57522         4.58093         3.67486
   C      -11.56587         4.77712         2.63954
   C      -11.78684         4.02245         1.51994
   C      -12.82290         4.51773         0.70635
   C      -13.39671         5.65207         1.19215
   S      -12.67145         6.12528         2.69453
   C      -14.50256         6.45323         0.60715
   C      -10.84614         4.77314         5.02462
   C       -9.89942         4.53190         6.05209
   C       -8.60227         4.07364         5.73879
   C       -8.31768         3.92310         4.38524
   S       -6.79558         3.37941         3.72887
   C       -7.62105         3.74766         6.75259
   C       -6.26982         3.95472         6.71848
   C       -5.59763         3.46160         7.85380
   C       -6.42137         2.86172         8.75543
   S       -8.06764         2.90881         8.21669
   C       -6.07338         2.21925        10.04927
   C      -10.43292         4.81290         7.33064
   C      -11.73875         5.21439         7.30493
   S      -12.37680         5.28353         5.68058
   C      -12.54924         5.54612         8.43097
   C      -12.14191         5.64313         9.73256
   C      -13.18241         5.96010        10.63275
   C      -13.08601         6.16935        12.02622
   C      -11.85817         5.97694        12.76807
   C      -11.40774         6.68227        13.85002
   C      -10.20488         6.18215        14.38535
   C       -9.73290         5.08675        13.73074
   S      -10.77429         4.65644        12.41456
   C       -8.50659         4.29566        14.00950
   C      -14.25995         6.54037        12.66835
   C      -15.51014         6.68020        12.01050
   C      -15.60453         6.47205        10.61510
   C      -14.42557         6.11475         9.96891
   S      -14.25815         5.85139         8.25385
   C      -16.84003         6.62943         9.88199
   C      -17.29221         5.88899         8.82337
   C      -18.51830         6.34469         8.30464
   C      -19.00656         7.44291         8.94478
   S      -17.95209         7.92878        10.22989
   C      -20.25990         8.19288         8.67494
   C      -16.54870         6.96789        12.91760
   C      -16.14739         7.04033        14.22929
   S      -14.41280         6.81594        14.37936
   C      -16.97732         7.36567        15.32758
   C      -16.71618         7.23585        16.65805
   C      -17.45552         8.06134        17.64590
   O      -18.47316         8.68740        17.46689
   C      -16.63307         8.00045        18.87795
   C      -15.56463         7.10391        18.68837
   C      -15.69335         6.49644        17.36622
   C      -15.16145         5.29221        16.98861
   C      -15.60041         4.58589        15.84709
   N      -15.99227         3.95299        14.97372
   C      -14.20644         4.58596        17.74610
   N      -13.40931         3.99543        18.32307
   C      -14.63906         6.90731        19.69813
   C      -14.79689         7.60957        20.88758
   C      -15.86707         8.48638        21.07451
   C      -16.79733         8.68762        20.06237
  Br      -16.06393         9.41884        22.70751
  Br      -13.52384         7.36018        22.26288
   H       -5.05119         1.94197        -7.08382
   H       -9.91916         3.10094        -7.34507
   H       -7.09430         1.93571       -11.69734
   H       -5.23976         1.68281        -9.87619
   H       -8.56047         3.39037        -2.07389
   H       -4.87292         2.32985        -2.33451
   H       -4.80237         2.75339         1.96954
   H       -9.24498         4.13024         1.15772
   H      -11.25610         3.11279         1.30461
   H      -13.11721         4.05246        -0.21665
   H      -14.21034         7.49779         0.50569
   H      -15.38451         6.41575         1.24699
   H      -14.76367         6.06276        -0.37339
   H       -5.77178         4.48032         5.92415
   H       -4.53498         3.54872         7.99362
   H       -5.02021         2.37473        10.27007
   H       -6.26745         1.14721        10.00976
   H       -6.67185         2.63372        10.85975
   H       -9.87249         4.72269         8.24124
   H      -11.11959         5.51066        10.02984
   H      -11.89736         7.56152        14.22829
   H       -9.70788         6.62154        15.23177
   H       -7.99407         4.70021        14.87882
   H       -7.82800         4.32446        13.15674
   H       -8.75703         3.25278        14.20240
   H      -16.78401         5.01761         8.45268
   H      -19.02168         5.87332         7.47953
   H      -20.75131         7.78931         7.79300
   H      -20.04979         9.24930         8.51082
   H      -20.94269         8.11809         9.52158
   H      -17.58030         7.07325        12.63572
   H      -17.90561         7.87119        15.08046
   H      -13.80107         6.23852        19.58235
   H      -17.62689         9.36414        20.19775
*
