# ORCA input file
# SCF done       -217.955177809104          0.000417280017
! CAM-B3LYP def2-SVP def2/J RIJCOSX Grid4 TightSCF
%maxcore 5000
%tddft
    Mode sTDDFT
    Ethresh 5.0
    maxcore 5000
end

%pal
  nprocs 6
  end
* xyz 0 1
   C       -1.18275         5.68568         5.58421
   C       -0.96213         6.86283         6.24951
   C        0.01818         7.03365         7.24902
   N        0.80178         7.23570         8.06337
   C       -1.68384         8.05702         6.03982
   N       -2.21950         9.06610         5.92514
   C       -0.48898         4.42609         5.81535
   C       -1.08458         3.42193         5.01127
   C       -0.64823         2.11927         5.01063
   C        0.42499         1.78961         5.84345
   C        1.01584         2.79944         6.64031
   C        0.57572         4.11772         6.64073
   S        2.32834         2.16750         7.58343
   C        2.07874         0.58989         6.91946
   C        1.06226         0.53076         6.03175
   C       -2.18615         4.00364         4.22843
   O       -2.87658         3.43495         3.40795
   C       -2.20386         5.44766         4.58283
   C       -2.93683         6.38883         3.92420
   C       -3.99041         6.11285         3.01515
   S       -4.02208         7.02123         1.54290
   C       -5.26361         6.04560         0.84479
   C       -5.65692         5.03631         1.74142
   C       -4.99371         5.13236         3.00810
   C       -5.44492         4.31478         4.07713
   C       -5.12705         4.57111         5.52080
   F       -4.84401         5.85354         5.79658
   F       -6.18307         4.26529         6.30032
   F       -4.10852         3.84420         6.02557
   C       -6.31836         3.29165         3.80379
   C       -6.78779         3.04876         2.51102
   C       -6.49917         3.91421         1.47865
   O       -6.93826         3.76550         0.21669
   C       -7.71929         2.63850        -0.11632
   C       -5.69707         6.42682        -0.45420
   C       -6.92348         6.25170        -0.99926
   C       -7.26748         6.69124        -2.29957
   N       -8.47073         6.59626        -2.79364
   C       -8.51984         7.07192        -4.03289
   C       -7.30880         7.56093        -4.56581
   S       -6.05816         7.41085        -3.40729
   N       -7.35390         8.03029        -5.80673
   C       -8.55021         7.93223        -6.30293
   S       -9.77148         7.23963        -5.19611
   C       -8.91710         8.39106        -7.59184
   S      -10.49964         9.03232        -7.81107
   C      -10.12774         9.65342        -9.38266
   C       -8.79993         9.34026        -9.73590
   C       -8.12277         8.56650        -8.73923
   C       -6.83573         8.04619        -9.03237
   C       -6.14531         6.97558        -8.23289
   F       -6.98779         6.12166        -7.62948
   F       -5.39193         6.19649        -9.04045
   F       -5.29469         7.43074        -7.30318
   C       -6.20832         8.45024       -10.18618
   C       -6.81758         9.30905       -11.10337
   C       -8.11922         9.72485       -10.92719
   O       -8.80179        10.47521       -11.81581
   C       -8.15866        10.88840       -13.00328
   C      -11.08767        10.38043       -10.11226
   C      -12.36588        10.60522        -9.69297
   C      -13.27461        11.36578       -10.45252
   C      -14.53080        11.77439       -10.10645
   C      -15.25259        11.74673        -8.85447
   C      -14.71592        11.81048        -7.59312
   C      -15.48794        11.83203        -6.41337
   N      -16.06610        11.83712        -5.42146
   C      -13.34397        11.98009        -7.31463
   N      -12.24981        12.16803        -7.02133
   C      -16.67221        11.87594        -9.17200
   C      -16.80316        12.20320       -10.54692
   C      -15.46760        12.22506       -11.16978
   O      -15.18210        12.50191       -12.31393
   C      -18.02244        12.43279       -11.13694
   C      -19.16573        12.32447       -10.33921
   C      -19.02539        11.98251        -8.97284
   C      -17.79177        11.75773        -8.37219
   S      -20.56928        11.89348        -8.18576
   C      -21.37236        12.31123        -9.65978
   C      -20.53104        12.50757       -10.69813
   H       -1.12476         1.37793         4.38833
   H        1.06111         4.85174         7.26214
   H        2.71967        -0.20820         7.24030
   H        0.76187        -0.36498         5.51888
   H       -2.64617         7.42937         4.00204
   H       -6.65412         2.65062         4.60439
   H       -7.41216         2.18639         2.34997
   H       -7.92682         2.73741        -1.18037
   H       -8.66243         2.62666         0.43755
   H       -7.17422         1.70813         0.06483
   H       -4.97186         7.00161        -1.01994
   H       -7.72363         5.77781        -0.45475
   H       -5.22222         8.07612       -10.41357
   H       -6.25803         9.59610       -11.97731
   H       -8.89992        11.47146       -13.54709
   H       -7.85411        10.03179       -13.61075
   H       -7.29028        11.51686       -12.78851
   H      -10.76195        10.80476       -11.04938
   H      -12.69477        10.17184        -8.75883
   H      -12.98147        11.61141       -11.46846
   H      -18.09141        12.68872       -12.18284
   H      -17.73527        11.49411        -7.32901
   H      -22.44254        12.38452        -9.65683
   H      -20.84984        12.77289       -11.68987
*
