# ORCA input file
# SCF done       -287.131662635653          0.000942152086
! CAM-B3LYP def2-SVP def2/J RIJCOSX Grid4 TightSCF
%maxcore 5000
%tddft
    Mode sTDDFT
    Ethresh 5.0
    maxcore 5000
end

%pal
  nprocs 6
  end
* xyz 0 1
   C        4.11728         6.25456        -6.52269
   C        2.85521         6.66584        -6.84989
   F        2.54001         6.87035        -8.14129
   C        1.86252         6.88574        -5.88507
   C        2.16410         6.68163        -4.56736
   C        3.44960         6.25664        -4.17348
   C        4.44626         6.04157        -5.16989
   C        5.74643         5.62678        -4.79873
   C        6.03606         5.43068        -3.47561
   C        5.03001         5.62735        -2.48575
   C        3.76973         6.03558        -2.81527
   C        5.58345         5.30580        -1.15648
   O        5.04093         5.39907        -0.08055
   C        6.95055         4.77087        -1.42272
   C        7.27772         5.05442        -2.80498
   C        8.53337         5.19774        -3.33529
   C        9.71388         5.10719        -2.56896
   N       10.69359         5.09432        -1.97175
   C        8.78532         5.50638        -4.68589
   N        9.04059         5.71152        -5.78678
   C        7.57576         4.05124        -0.45239
   C        8.65839         3.14620        -0.58312
   C        9.10078         2.49378        -1.70603
   C       10.19287         1.63496        -1.47787
   C       10.91956         0.89205        -2.43525
   C       10.66442         0.99844        -3.85498
   C       10.76603         0.02924        -4.81484
   C       10.51472         0.51935        -6.11264
   C       10.23559         1.85595        -6.17252
   S       10.27120         2.53459        -4.58627
   C        9.92915         2.68556        -7.36473
  Cl       10.55706        -0.48166        -7.51100
   C       11.94649         0.09830        -1.93979
   C       12.30329         0.04225        -0.56746
   C       11.60868         0.82316         0.38038
   C       10.55496         1.59200        -0.10636
   S        9.55486         2.65384         0.83852
   C       11.97233         0.85972         1.78150
   C       11.13816         0.95200         2.86015
   C       11.83403         1.02215         4.08554
   C       13.19383         1.00082         3.96668
   S       13.63780         0.87744         2.29980
   C       14.22473         1.05075         5.03280
  Cl       11.01877         1.12839         5.59795
   C       13.38247        -0.84301        -0.34028
   C       13.87147        -1.41837        -1.48052
   S       12.99520        -0.90212        -2.90390
   C       14.95116        -2.33820        -1.59431
   C       15.73617        -2.84524        -0.57594
   C       16.70962        -3.72219        -1.05692
   C       16.66352        -3.87802        -2.45202
   S       15.42434        -2.95150        -3.16872
   C       17.68742        -4.78152        -2.84037
   C       18.37537        -5.19976        -1.68956
   C       17.78698        -4.54607        -0.53107
   C       18.16794        -4.67536         0.77259
   C       17.52089        -3.97849         1.81447
   N       16.99678        -3.41140         2.66228
   C       19.23406        -5.51349         1.16107
   N       20.09956        -6.19578         1.47796
   C       19.40810        -6.09591        -1.96983
   C       19.51020        -6.35708        -3.32305
   S       18.31341        -5.48337        -4.26283
   C       20.44622        -7.21243        -3.96929
   C       21.34865        -8.05348        -3.37888
   C       22.14567        -8.76927        -4.30136
   C       23.17531        -9.69362        -4.02447
   C       23.62318        -9.98825        -2.67978
   C       24.06323       -11.18334        -2.18360
   C       24.49965       -11.09264        -0.84495
   C       24.41265        -9.84244        -0.30377
   S       23.76827        -8.74011        -1.46961
   C       24.78590        -9.38656         1.05802
  Cl       25.09168       -12.45833         0.01954
   C       23.77985       -10.28784        -5.12745
   C       23.45188        -9.96907        -6.47006
   C       22.44571        -9.01830        -6.74620
   C       21.80248        -8.46715        -5.64364
   S       20.53103        -7.27960        -5.71476
   C       22.10987        -8.59960        -8.09042
   C       20.87468        -8.29341        -8.58950
   C       20.92205        -7.84592        -9.92635
   C       22.17785        -7.78988       -10.45973
   S       23.34093        -8.31571        -9.29241
   C       22.59371        -7.35590       -11.81678
  Cl       19.50326        -7.40725       -10.79720
   C       24.22112       -10.71470        -7.38903
   C       25.15391       -11.53007        -6.80433
   S       25.06118       -11.45984        -5.05386
   C       26.01705       -12.42492        -7.49074
   C       27.12992       -13.05165        -7.03280
   C       27.61821       -14.28841        -7.70794
   O       27.30929       -14.68320        -8.80789
   C       28.49130       -14.94315        -6.71461
   C       29.08735       -16.17016        -6.77198
   C       29.86307       -16.61173        -5.67697
   C       30.00253       -15.77092        -4.53380
   C       30.76889       -16.22376        -3.44230
   C       31.36398       -17.45302        -3.50375
   C       31.24177       -18.29263        -4.61953
   C       30.49984       -17.86990        -5.68700
   F       32.09687       -17.88684        -2.46266
   C       29.38253       -14.50001        -4.50501
   C       28.64419       -14.09084        -5.58184
   C       27.93860       -12.84219        -5.84845
   C       28.20685       -11.63220        -5.26759
   C       27.72591       -10.41034        -5.78583
   N       27.40372        -9.39936        -6.22341
   C       29.06867       -11.46786        -4.16495
   N       29.75024       -11.28920        -3.25878
   H        4.85758         6.09937        -7.29192
   H        0.88448         7.21041        -6.20288
   H        1.41612         6.84420        -3.80608
   H        6.47984         5.46524        -5.57286
   H        3.02496         6.18819        -2.04868
   H        7.13918         4.13578         0.53792
   H        8.61205         2.58695        -2.65806
   H       10.97153        -1.00528        -4.61203
   H       10.75334         2.63935        -8.07632
   H        9.76607         3.72138        -7.07652
   H        9.03659         2.31051        -7.86615
   H       10.06611         0.93153         2.79984
   H       13.75187         1.25365         5.99041
   H       14.95669         1.82928         4.82315
   H       14.75555         0.10069         5.09680
   H       13.78169        -1.05530         0.63284
   H       15.60122        -2.58330         0.45675
   H       20.06117        -6.53080        -1.23654
   H       21.42425        -8.16733        -2.31458
   H       24.04133       -12.11017        -2.72590
   H       24.97347       -10.24769         1.69471
   H       23.98959        -8.78452         1.49237
   H       25.68832        -8.77551         1.02297
   H       19.95486        -8.41602        -8.04879
   H       21.71388        -7.16105       -12.42483
   H       23.19769        -8.12363       -12.29821
   H       23.19152        -6.44614       -11.76137
   H       24.11324       -10.64599        -8.45585
   H       25.69494       -12.71064        -8.48747
   H       28.96793       -16.79797        -7.64228
   H       30.88748       -15.60251        -2.56837
   H       31.73449       -19.25190        -4.61117
   H       30.39066       -18.49902        -6.55756
   H       29.49630       -13.88395        -3.62679
*
