# ORCA input file
# SCF done       -228.664332530694          0.000690885467
! CAM-B3LYP def2-SVP def2/J RIJCOSX Grid4 TightSCF
%maxcore 5000
%tddft
    Mode sTDDFT
    Ethresh 5.0
    maxcore 5000
end

%pal
  nprocs 6
  end
* xyz 0 1
   C       -5.16847         3.65196         0.86991
   C       -4.25639         4.11666        -0.06572
   C       -3.35465         3.25662        -0.67736
   C       -3.33415         1.90567        -0.36546
   C       -4.24253         1.42944         0.56496
   C       -5.16760         2.30182         1.18455
   C       -6.00383         1.53525         2.09910
   C       -6.92079         2.04338         2.97752
   C       -7.20026         3.41932         3.12214
   N       -7.47463         4.52116         3.28834
   C       -7.67912         1.27758         3.88904
   N       -8.32417         0.71753         4.65632
   C       -5.67124         0.12896         1.88451
   C       -4.42560         0.10044         1.12246
   C       -3.48652        -0.89337         1.16645
   C       -3.57853        -1.99176         2.05078
   N       -3.59563        -2.84717         2.81518
   C       -2.30648        -0.89797         0.39705
   N       -1.35660        -0.96769        -0.24355
   C       -6.49460        -0.91307         2.19198
   C       -6.47946        -2.23275         1.67153
   C       -7.17356        -3.29284         2.20075
   C       -7.03524        -4.49444         1.47427
   C       -7.60122        -5.76007         1.74598
   C       -8.52204        -5.97930         2.83963
   C       -8.63069        -7.08228         3.64000
   C       -9.67506        -6.97366         4.58159
   C      -10.38482        -5.80875         4.50904
   S       -9.74476        -4.80581         3.25466
   C      -11.53663        -5.36637         5.33324
  Cl      -10.01635        -8.21761         5.72023
   C       -7.23881        -6.79702         0.88893
   C       -6.34604        -6.63119        -0.20218
   C       -5.80887        -5.35982        -0.49485
   C       -6.18124        -4.32896         0.35369
   S       -5.67059        -2.67838         0.18003
   C       -4.89468        -5.14740        -1.59922
   C       -4.94950        -5.64537        -2.86957
   C       -3.85728        -5.23017        -3.66124
   C       -2.96211        -4.42689        -3.01425
   S       -3.47243        -4.15879        -1.38580
   C       -1.70407        -3.83358        -3.53288
  Cl       -3.67394        -5.69753        -5.30802
   C       -6.11175        -7.84637        -0.88193
   C       -6.83240        -8.89399        -0.37976
   S       -7.81765        -8.44022         0.98520
   C       -6.85352       -10.23179        -0.85183
   N       -7.64720       -11.15630        -0.40700
   C       -7.45425       -12.30285        -1.05882
   C       -6.46572       -12.29895        -2.05535
   S       -5.75406       -10.73945        -2.16371
   N       -6.27913       -13.44252        -2.71474
   C       -7.08849       -14.36461        -2.29275
   S       -8.18232       -13.85554        -0.97689
   C       -7.13901       -15.69696        -2.82637
   C       -8.14751       -16.58867        -2.43746
   C       -8.18003       -17.84183        -2.99580
   C       -7.20661       -18.23392        -3.93298
   C       -6.19912       -17.35684        -4.31305
   C       -6.17392       -16.09262        -3.76276
   C       -7.49637       -19.58682        -4.35573
   C       -8.65533       -20.02599        -3.69133
   C       -9.17655       -18.95271        -2.76414
   C       -9.16484       -19.42121        -1.29701
   C       -7.78675       -19.87640        -0.83229
   C      -10.60048       -18.51387        -3.15455
   C      -10.69752       -18.03539        -4.59820
   C       -9.17022       -21.27616        -3.92749
   C       -8.52966       -22.12879        -4.84044
   C       -7.36126       -21.68254        -5.47646
   C       -6.84312       -20.42455        -5.24849
   C       -9.02343       -23.44565        -5.16283
   C      -10.20487       -23.97127        -4.78007
   C      -10.66848       -25.27015        -5.13981
   C      -10.04653       -26.25992        -5.87731
   C      -10.84803       -27.39496        -6.01774
   C      -12.09054       -27.27179        -5.38389
   S      -12.27213       -25.76223        -4.61238
   C      -12.82464       -28.47552        -5.59168
   C      -12.04203       -29.35072        -6.35297
   C      -10.77482       -28.70873        -6.64742
   C       -9.72958       -29.21931        -7.36079
   C       -8.54313       -28.48910        -7.57927
   N       -7.57691       -27.89819        -7.76051
   C       -9.76412       -30.51051        -7.92717
   N       -9.78491       -31.56086        -8.38740
   C      -12.69560       -30.57214        -6.60913
   C      -13.93551       -30.59795        -6.04868
   S      -14.34389       -29.14412        -5.19569
   H       -5.86259         4.33426         1.33248
   H       -4.25183         5.16503        -0.32206
   H       -2.65889         3.64301        -1.40639
   H       -2.63383         1.24295        -0.84790
   H       -7.32899        -0.71654         2.85300
   H       -7.72699        -3.20463         3.11760
   H       -7.97062        -7.92793         3.59603
   H      -12.41498        -5.20215         4.70963
   H      -11.30752        -4.42998         5.84082
   H      -11.76745        -6.12537         6.07638
   H       -5.75540        -6.24627        -3.24867
   H       -0.90403        -4.57514        -3.52888
   H       -1.39754        -2.99455        -2.91337
   H       -1.84464        -3.49688        -4.55869
   H       -5.43014        -7.95202        -1.70575
   H       -8.88909       -16.27440        -1.71706
   H       -5.45093       -17.65514        -5.03155
   H       -5.41256       -15.38124        -4.04028
   H       -9.87422       -20.24430        -1.18756
   H       -9.50722       -18.59863        -0.66569
   H       -7.43397       -20.71150        -1.43378
   H       -7.82962       -20.19446         0.20678
   H       -7.06589       -19.06580        -0.91439
   H      -10.91450       -17.71106        -2.48443
   H      -11.27865       -19.35679        -3.00608
   H      -10.04632       -17.18018        -4.76475
   H      -11.71888       -17.73918        -4.82569
   H      -10.40696       -18.82633        -5.28624
   H      -10.05802       -21.60386        -3.40915
   H       -6.86437       -22.34426        -6.17132
   H       -5.94735       -20.10009        -5.75622
   H       -8.37380       -24.03713        -5.79393
   H      -10.88802       -23.39620        -4.17069
   H       -9.05958       -26.15799        -6.28830
   H      -12.27838       -31.38584        -7.17364
   H      -14.65541       -31.39099        -6.07904
*
