# ORCA input file
# SCF done       -204.690504799004          0.000345480067
! CAM-B3LYP def2-SVP def2/J RIJCOSX Grid4 TightSCF
%maxcore 5000
%tddft
    Mode sTDDFT
    Ethresh 5.0
    maxcore 5000
end

%pal
  nprocs 6
  end
* xyz 0 1
   C        9.66822        12.96523        -2.66574
   C        8.82652        12.17640        -1.96727
   C        9.24463        10.81410        -1.92559
   C        8.60339         9.72376        -1.31062
   C        7.33273         9.84717        -0.62188
   C        6.95453         9.24610         0.54359
   C        5.62329         9.54588         0.90626
   C        4.96635        10.35769         0.02896
   S        6.01589        10.77993        -1.28173
   C        3.57150        10.86263         0.09081
  Cl        4.90377         8.92932         2.34366
   C        9.24333         8.48997        -1.40157
   C       10.47013         8.30367        -2.09157
   C       11.10228         9.39238        -2.72805
   C       10.47040        10.62695        -2.60973
   S       11.03117        12.12235        -3.30954
   C       12.32597         9.24576        -3.48743
   C       13.37753        10.11558        -3.56058
   C       14.38815         9.67684        -4.44148
   C       14.12396         8.48863        -5.05975
   S       12.59196         7.87921        -4.53800
   C       14.95485         7.74056        -6.03605
  Cl       15.82953        10.58025        -4.70603
   C       10.90989         6.96238        -2.02199
   C       10.04177         6.14733        -1.35028
   S        8.64344         6.99130        -0.74373
   C       10.18397         4.74709        -1.11490
   N        9.21675         4.10294        -0.49130
   N        9.25167         2.83342        -0.20914
   C       10.25031         2.04134        -0.54374
   C       11.34976         2.59812        -1.26685
   C       11.32535         4.00726        -1.55126
   N       12.40484         4.28697        -2.25210
   O       13.04923         3.12931        -2.40564
   N       12.43333         2.10362        -1.82946
   C       10.20380         0.64875        -0.17493
   C       11.35846        -0.04686         0.23513
   C       11.32981        -1.45099         0.56564
   N       12.47198        -2.09236         0.81987
   C       13.59743        -1.42258         0.86096
   C       13.59645         0.00531         0.72212
   N       12.50148         0.64134         0.39856
   C       14.78337         0.74746         0.94513
   N       15.76002         1.31665         1.13071
   C       14.81191        -2.11933         1.06916
   N       15.81589        -2.64556         1.23763
   C       10.10752        -2.17757         0.59299
   C        8.95238        -1.46343         0.20855
   C        8.99785        -0.07242        -0.17548
   N        7.79617         0.37618        -0.53879
   S        6.72506        -0.80167        -0.38435
   N        7.71900        -1.95969         0.13101
   C       10.04107        -3.53565         0.96131
   S        8.49595        -4.43566         0.81496
   C        9.33001        -5.81268         1.39295
   C       10.68296        -5.49235         1.66241
   N       11.03827        -4.25283         1.41736
   C       11.42257        -6.68351         2.17913
   C       10.34047        -7.72089         2.16353
   C        9.13594        -7.16851         1.69809
   S        7.86432        -8.32411         1.64830
   C        8.94956        -9.56273         2.25601
   C       10.22987        -9.06299         2.47878
   C        8.52890       -10.89352         2.46633
   C        7.28688       -11.37375         2.19955
   C        6.88110       -12.71158         2.40186
   C        5.64269       -13.26446         2.11303
   C        5.54858       -14.61748         2.41651
   C        6.73289       -15.11475         2.95144
   S        7.95980       -13.91665         3.07542
   C        6.77063       -16.48721         3.31027
   C        5.62943       -17.24375         3.10133
  Ge        4.23966       -16.09038         2.31533
   C        2.65687       -15.83074         3.48291
   C        3.76000       -16.58463         0.45462
   C        5.80898       -18.57683         3.50306
   C        7.05501       -18.81312         4.00148
   S        8.05542       -17.41305         3.99715
   H        9.58555        14.01930        -2.84513
   H        7.93779        12.54167        -1.48798
   H        7.60213         8.63735         1.14600
   H        3.10106        10.52126         1.00947
   H        2.99347        10.49896        -0.75842
   H        3.55470        11.95162         0.06603
   H       13.45741        11.01770        -2.98352
   H       15.88332         8.27716        -6.21425
   H       14.42582         7.62413        -6.98155
   H       15.18654         6.74571        -5.65722
   H       11.82953         6.59377        -2.43698
   H       11.81818        -6.50846         3.18126
   H       12.26370        -6.94674         1.53549
   H       11.02881        -9.67836         2.85123
   H        9.27868       -11.56623         2.86382
   H        6.53648       -10.70610         1.79441
   H        4.84032       -12.68455         1.69035
   H        2.96635       -15.55070         4.48476
   H        2.08026       -16.74877         3.53995
   H        2.02039       -15.04782         3.08242
   H        4.65534       -16.70824        -0.14634
   H        3.14380       -15.81073         0.00758
   H        3.20348       -17.51668         0.44646
   H        5.04833       -19.33422         3.42790
   H        7.45607       -19.73435         4.37692
*
