# ORCA input file
# SCF done       -211.745684339968          0.000582626449
! CAM-B3LYP def2-SVP def2/J RIJCOSX Grid4 TightSCF
%maxcore 5000
%tddft
    Mode sTDDFT
    Ethresh 5.0
    maxcore 5000
end

%pal
  nprocs 6
  end
* xyz 0 1
   C       -0.66164         5.92038        -4.83173
   C        0.63376         6.11109        -5.15035
   C        1.52822         5.42157        -4.27871
   C        2.93351         5.41330        -4.30522
   C        3.67173         6.22040        -5.25826
   C        3.44531         7.51878        -5.61042
   C        4.36130         7.98724        -6.57824
   C        5.28272         7.06441        -6.97711
   S        5.03049         5.57230        -6.13454
   C        6.37459         7.20736        -7.97332
  Cl        4.30435         9.59684        -7.19211
   C        3.56810         4.60846        -3.36592
   C        2.87437         3.86020        -2.38534
   C        1.46846         3.89701        -2.33423
   C        0.83237         4.67082        -3.30332
   S       -0.89070         4.88550        -3.46520
   C        0.70171         3.19294        -1.32566
   C       -0.48843         2.54208        -1.47884
   C       -0.98671         2.01951        -0.26560
   C       -0.20486         2.27053         0.82332
   S        1.19837         3.16532         0.34651
   C       -0.41876         1.87158         2.23743
  Cl       -2.46627         1.14187        -0.18331
   C        3.76593         3.12528        -1.56080
   C        5.08213         3.31068        -1.85592
   S        5.28776         4.41868        -3.19973
   C        6.24598         2.72195        -1.22721
   C        6.09869         1.76131        -0.20622
   C        7.17489         1.16820         0.41156
   C        8.44702         1.54896        -0.00141
   C        8.59494         2.51760        -1.01903
   C        7.52056         3.11002        -1.64264
   O        9.92231         2.70044        -1.21622
   C       10.52024         1.85026        -0.33247
   N        9.69645         1.15925         0.39509
   C       11.96179         1.78430        -0.27662
   C       12.56491         0.84560         0.58066
   C       13.93132         0.72409         0.67551
   C       14.70693         1.57304        -0.10938
   C       14.09020         2.51908        -0.96109
   C       12.72311         2.64358        -1.06785
   O       15.07551         3.20368        -1.58885
   C       16.23026         2.65878        -1.11116
   N       16.06096         1.70428        -0.24718
   C       17.49887         3.15955        -1.58566
   C       18.68098         2.52612        -1.15947
   C       19.92018         2.94255        -1.58564
   C       19.96821         4.02687        -2.45808
   C       18.77330         4.66378        -2.87016
   C       17.52811         4.24980        -2.45465
   O       19.11808         5.67748        -3.69892
   C       20.47635         5.61605        -3.76273
   N       21.01723         4.66859        -3.05529
   C       21.17361         6.55856        -4.57453
   C       22.51253         6.59341        -4.82715
   C       22.88740         7.65785        -5.68421
   C       24.17050         7.97367        -6.17283
   C       25.33528         7.15997        -5.89049
   C       26.61083         7.57907        -5.63921
   C       27.51307         6.50750        -5.46971
   C       26.95290         5.26977        -5.60007
   S       25.26144         5.41851        -5.93130
   C       27.60437         3.93922        -5.50328
  Cl       29.18179         6.75608        -5.12703
   C       24.26528         9.10473        -6.97988
   C       23.15207         9.90012        -7.34375
   C       21.86808         9.57214        -6.87594
   C       21.77456         8.45983        -6.04308
   S       20.29596         7.84434        -5.35851
   C       20.68050        10.32016        -7.24260
   C       19.62729        10.65768        -6.44287
   C       18.60431        11.33372        -7.14297
   C       18.84922        11.50874        -8.47330
   S       20.39158        10.83653        -8.88219
   C       17.99947        12.16408        -9.49932
  Cl       17.16939        11.88215        -6.36507
   C       23.53673        10.98614        -8.18400
   C       24.85594        10.99474        -8.46138
   S       25.72727         9.70137        -7.71766
   H       -1.52806         6.31797        -5.32294
   H        0.96095         6.70244        -5.98530
   H        2.68394         8.13701        -5.17182
   H        6.21178         6.54029        -8.81967
   H        7.33538         6.95415        -7.52720
   H        6.40949         8.23210        -8.33488
   H       -0.98429         2.40425        -2.42131
   H       -1.42779         1.48669         2.35999
   H       -0.27655         2.72166         2.90205
   H        0.28863         1.09513         2.52921
   H        3.42346         2.47558        -0.77830
   H        5.10455         1.47756         0.09921
   H        7.04751         0.43259         1.18849
   H        7.65754         3.84451        -2.42057
   H       11.91123         0.21717         1.16395
   H       14.39674         0.00406         1.32774
   H       12.26104         3.36374        -1.72287
   H       18.57919         1.69232        -0.48358
   H       20.82727         2.45753        -1.26589
   H       16.62399         4.73802        -2.77888
   H       23.18664         5.87646        -4.39907
   H       26.90057         8.60834        -5.53990
   H       27.73828         3.50516        -6.49502
   H       26.99412         3.25526        -4.91641
   H       28.58109         4.04195        -5.03626
   H       19.58604        10.46758        -5.38678
   H       17.05101        12.45616        -9.05501
   H       17.80929        11.48584       -10.33045
   H       18.49114        13.05213        -9.89678
   H       22.85062        11.72510        -8.55327
   H       25.39731        11.69835        -9.06291
*
