# ORCA input file
# SCF done       -159.758292203924          0.000529656408
! CAM-B3LYP def2-SVP def2/J RIJCOSX Grid4 TightSCF
%maxcore 5000
%tddft
    Mode sTDDFT
    Ethresh 5.0
    maxcore 5000
end

%pal
  nprocs 6
  end
* xyz 0 1
   C        3.74719        -1.24033         1.34024
   O        3.34415        -2.51496         1.30156
   C        4.44315        -3.28562         1.40156
   C        5.55789        -2.52136         1.50483
   C        5.11781        -1.16034         1.46591
   C        5.95775        -0.00613         1.54742
   C        5.52682         1.28077         1.51917
   C        6.39040         2.39103         1.61335
   C        5.95722         3.69215         1.60251
   C        6.80194         4.79562         1.71388
   C        6.37692         6.11192         1.72450
   C        7.17254         7.26363         1.85454
   C        6.46381         8.43849         1.84659
   C        5.08114         8.26242         1.70516
   S        4.68850         6.57003         1.58225
   C        4.09176         9.25142         1.66014
   C        4.25096        10.63310         1.77939
   C        3.06651        11.33326         1.69077
   C        1.94447        10.52877         1.49277
   S        2.40870         8.84863         1.43022
   C        0.61889        10.96012         1.33888
   C       -0.44249        10.14234         1.07664
   C       -1.75643        10.59233         0.87346
   C       -2.85365         9.82823         0.48198
   C       -4.00498        10.56525         0.28718
   C       -3.83674        11.92635         0.53189
   S       -2.20963        12.26784         1.03423
   C       -4.77370        12.96166         0.36724
   C       -6.08159        12.87303        -0.10845
   C       -6.70115        14.09720        -0.23955
   C       -5.89096        15.17943         0.11811
   S       -4.33768        14.61823         0.68370
   C       -6.15773        16.52999        -0.10130
   C       -5.24774        17.54392         0.14874
   C       -5.38633        18.84794        -0.36901
   O       -4.64660        19.88785         0.14863
   C       -3.59221        19.53981         0.93363
   C       -3.33317        18.18594         1.29242
   C       -2.21520        18.03927         2.04471
   S       -1.46010        19.55895         2.32725
   C       -2.66311        20.39902         1.42799
   O       -4.18120        17.18310         0.93677
   C       -6.26427        19.26375        -1.37611
   C       -6.92479        18.60527        -2.39372
   C       -6.77946        17.33897        -2.99841
   C       -5.66658        16.45475        -2.89721
   C       -5.69561        15.13648        -3.49599
   N       -4.68336        14.27084        -3.25620
   C       -3.64633        14.68530        -2.57492
   C       -3.54812        16.03931        -2.12347
   N       -4.56643        16.86848        -2.26940
   C       -2.38729        16.50009        -1.46886
   N       -1.44344        16.85481        -0.91970
   C       -2.61258        13.76667        -2.26829
   N       -1.76273        13.04716        -1.99576
   C       -6.74605        14.71378        -4.29606
   C       -7.79423        15.60528        -4.51189
   C       -7.81444        16.90304        -3.87258
   N       -8.91080        17.58899        -4.17683
   S       -9.82103        16.70576        -5.17835
   N       -8.87842        15.40229        -5.26419
   H        2.98963        -0.48557         1.27122
   H        4.29943        -4.34773         1.38762
   H        6.56934        -2.85991         1.59771
   H        7.01763        -0.20305         1.64181
   H        4.46886         1.48359         1.42537
   H        7.45129         2.19577         1.70668
   H        4.89549         3.88583         1.51010
   H        7.86675         4.62472         1.80718
   H        8.24206         7.20274         1.95232
   H        6.91118         9.41190         1.93557
   H        5.21084        11.09359         1.92731
   H        2.99214        12.40411         1.75678
   H        0.45031        12.02708         1.40962
   H       -0.27576         9.07632         0.98080
   H       -2.78563         8.76572         0.32839
   H       -4.94123        10.14648        -0.03416
   H       -6.54336        11.93780        -0.36750
   H       -7.69935        14.23586        -0.61549
   H       -7.09791        16.79191        -0.55799
   H       -1.79485        17.13372         2.42746
   H       -2.61851        21.46126         1.30938
   H       -6.41151        20.33883        -1.36009
   H       -7.69967        19.19138        -2.87653
   H       -6.73934        13.73038        -4.73321
*
