# ORCA input file
# SCF done       -168.192718995670          0.000501991401
! CAM-B3LYP def2-SVP def2/J RIJCOSX Grid4 TightSCF
%maxcore 5000
%tddft
    Mode sTDDFT
    Ethresh 5.0
    maxcore 5000
end

%pal
  nprocs 6
  end
* xyz 0 1
   C       10.17040         0.06679        -5.53822
   O       10.37640        -0.11382        -6.84580
   C       10.75586         1.07293        -7.35475
   C       10.79883         2.02271        -6.38802
   C       10.41236         1.37219        -5.17413
   C       10.28500         1.91289        -3.85226
   C       10.52268         3.19996        -3.52467
   C       10.39168         3.77088        -2.22162
   C       10.03517         3.12020        -1.08924
   C        9.90426         3.76995         0.16915
   O       10.13279         5.08654         0.31005
   C        9.90957         5.42988         1.60481
   C        9.53193         4.30788         2.32128
   C        9.53008         3.24535         1.40579
   C        9.19111         1.82765         1.68396
   F        8.13759         1.39429         0.96121
   F       10.20086         0.98422         1.38509
   F        8.88514         1.61528         2.96817
   C       10.07733         6.79014         1.97808
   C        9.82641         7.28557         3.21198
   C        9.97852         8.65946         3.54227
   O       10.44974         9.55196         2.65368
   C       10.45260        10.77973         3.23179
   C        9.97454        10.68012         4.52887
   C        9.67724         9.32552         4.72946
   C        9.13859         8.69940         5.96404
   F        9.94237         7.72743         6.44043
   F        8.97408         9.58018         6.95529
   F        7.94157         8.11249         5.76483
   C       10.92435        11.88059         2.47001
   C       10.86764        13.17418         2.87521
   C       11.37746        14.24940         2.09069
   C       11.21797        15.58928         2.40171
   O       11.75488        16.59303         1.62619
   C       12.44022        16.19251         0.52082
   C       12.58429        14.81618         0.18809
   C       13.29419        14.61941        -0.95077
   S       13.79923        16.11846        -1.63430
   C       13.04364        17.01620        -0.37112
   O       12.05171        13.83109         0.96764
   C       10.46906        16.06880         3.50692
   C       10.26911        17.39495         3.75921
   C        9.47707        17.81588         4.84598
   C        9.18587        19.11654         5.15590
   C        8.35294        19.58017         6.24701
   C        7.71857        18.81195         7.19015
   C        7.76633        17.40513         7.27498
   N        7.75210        16.26482         7.41563
   C        6.91468        19.33031         8.22699
   N        6.24761        19.67996         9.09393
   C        8.29841        21.03946         6.17112
   C        9.07656        21.46849         5.08156
   C        9.66714        20.30285         4.40051
   O       10.39182        20.32260         3.42720
   C        9.20284        22.81007         4.77622
   C        8.54170        23.73235         5.57122
   C        7.76508        23.32787         6.65538
   C        7.64296        21.97206         6.95659
   C        7.04115        24.34078         7.48419
   H        9.85806        -0.78113        -4.96097
   H       10.96434         1.11097        -8.40556
   H       11.06801         3.05026        -6.51469
   H        9.96992         1.20650        -3.09749
   H       10.83413         3.88284        -4.30295
   H       10.59596         4.83072        -2.14353
   H        9.82285         2.06278        -1.08949
   H        9.29090         4.25138         3.36221
   H       10.41533         7.45308         1.19425
   H        9.47494         6.64427         4.00459
   H        9.85924        11.46727         5.24434
   H       11.33694        11.63728         1.50200
   H       10.42485        13.41246         3.82629
   H       13.54703        13.69193        -1.42005
   H       13.08588        18.08493        -0.35629
   H       10.01758        15.34137         4.16289
   H       10.70527        18.14179         3.11388
   H        9.06311        17.03196         5.46732
   H        9.80571        23.11886         3.93602
   H        8.62688        24.78650         5.35081
   H        7.03901        21.67256         7.79783
   H        7.59733        25.27387         7.53364
   H        6.87335        23.96987         8.49207
   H        6.06879        24.55278         7.03814
*
