# ORCA input file
# SCF done       -144.913901120342          0.000381271974
! CAM-B3LYP def2-SVP def2/J RIJCOSX Grid4 TightSCF
%maxcore 5000
%tddft
    Mode sTDDFT
    Ethresh 5.0
    maxcore 5000
end

%pal
  nprocs 6
  end
* xyz 0 1
   C       10.84930         7.44721        -4.27970
   O       11.21280         7.56402        -5.55781
   C       10.68128         6.51843        -6.22382
   C        9.96706         5.72648        -5.38792
   C       10.06717         6.32717        -4.09257
   C        9.46086         5.83271        -2.89354
   C        9.71941         6.28773        -1.64655
   C        9.13295         5.78752        -0.44698
   C        8.01988         5.01413        -0.37772
   C        7.47325         4.49253         0.82021
   S        8.03054         5.06196         2.36586
   C        6.83221         4.10361         3.16767
   N        6.76593         4.13886         4.56524
   O        5.90139         3.47107         5.10566
   O        7.57973         4.83934         5.14251
   C        6.05197         3.38463         2.30204
   C        6.41732         3.56942         0.95496
   C        5.75102         2.84490        -0.08962
   C        6.23224         2.56636        -1.31995
   C        5.51680         1.87751        -2.33046
   S        3.96078         1.10168        -2.11783
   C        3.83650         0.55867        -3.78201
   C        4.98179         0.98863        -4.47114
   C        5.88863         1.70917        -3.64697
   O        6.95155         2.14182        -4.35336
   C        6.73620         1.69904        -5.62390
   N        7.68670         2.05528        -6.59980
   O        7.51798         1.61873        -7.72272
   O        8.59856         2.78506        -6.25502
   C        5.56692         0.99115        -5.75990
   C        2.74313        -0.14187        -4.31337
   S        2.76918        -0.51220        -6.02147
   C        1.19692        -1.22056        -5.89807
   N        0.62142        -1.76013        -7.06046
   O       -0.48501        -2.25544        -6.96452
   O        1.28039        -1.68826        -8.08179
   C        0.67716        -1.18235        -4.63629
   C        1.54397        -0.57929        -3.69760
   C        1.24581        -0.45946        -2.31443
   C        0.01484        -0.65886        -1.75916
   C       -0.23433        -0.53764        -0.38541
   C       -1.47377        -0.68063         0.19048
   C       -1.79022        -0.55610         1.56706
   C       -3.10743        -0.72872         1.85689
   C       -3.91323        -1.00161         0.72477
   S       -2.92741        -1.03764        -0.72354
   C       -5.27328        -1.20984         0.68379
   C       -6.18133        -1.18889         1.78132
   C       -7.46828        -1.41701         1.44065
   C       -7.67905        -1.63939         0.03821
   S       -6.12549        -1.53698        -0.80649
   C       -8.83632        -1.88781        -0.58903
   H       11.18138         8.20970        -3.60316
   H       10.88278         6.45440        -7.27428
   H        9.45395         4.81992        -5.63580
   H        8.78105         5.00477        -3.04049
   H       10.46578         7.05996        -1.52267
   H        9.63289         6.04966         0.47784
   H        7.47681         4.79654        -1.28394
   H        5.26462         2.73282         2.63595
   H        4.77413         2.45706         0.17346
   H        7.23316         2.84880        -1.61047
   H        5.20894         0.55863        -6.67113
   H       -0.28514        -1.59897        -4.40266
   H        2.05504        -0.19149        -1.65240
   H       -0.83294        -0.89643        -2.38721
   H        0.59513        -0.30755         0.27012
   H       -1.02961        -0.33997         2.29631
   H       -3.52138        -0.66718         2.84714
   H       -5.84306        -1.00227         2.78489
   H       -8.29399        -1.43776         2.12932
   H       -9.75900        -1.94158        -0.03854
   H       -8.88219        -2.04108        -1.65170
*
