# ORCA input file
# SCF done       -145.795295654688          0.000287824998
! CAM-B3LYP def2-SVP def2/J RIJCOSX Grid4 TightSCF
%maxcore 5000
%tddft
    Mode sTDDFT
    Ethresh 5.0
    maxcore 5000
end

%pal
  nprocs 6
  end
* xyz 0 1
   C       13.25220         4.46403       -11.35806
   O       13.08981         3.67796       -12.43000
   C       11.80475         3.27838       -12.43361
   C       11.13283         3.79694       -11.37620
   C       12.07888         4.58726       -10.65104
   C       11.89079         5.34899        -9.45037
   C       10.72827         5.45544        -8.77358
   C       10.58616         6.21167        -7.57762
   C        9.41917         6.30686        -6.89428
   C        9.22878         7.02821        -5.68888
   S        7.63951         7.01316        -4.93246
   C        8.20752         7.99101        -3.64788
   C        9.55888         8.31491        -3.80397
   C       10.13408         7.77748        -4.94777
   C        9.95173         9.14415        -2.65028
   O       11.03497         9.63083        -2.42024
   C        8.69206         9.24848        -1.81652
   C        7.68690         8.55250        -2.45755
   C        8.58104         9.92505        -0.58872
   C        9.61336        10.58751         0.01666
   C        9.49821        11.23413         1.26677
   C       10.54170        11.90305         1.89600
   O       10.39353        12.49074         3.13722
   C        9.16233        12.39002         3.70499
   C        8.08874        11.71754         3.05424
   C        6.94296        11.72948         3.77993
   S        7.15949        12.56396         5.27320
   C        8.81139        12.89887         4.91243
   O        8.24201        11.13580         1.83572
   C       11.83740        12.05364         1.34627
   C       12.84917        12.69292         2.00380
   C       14.14867        12.88253         1.49636
   S       15.34250        13.69565         2.50434
   C       16.52532        13.54302         1.27851
   C       16.01654        12.89673         0.14449
   C       14.68955        12.52317         0.26081
   C       17.11429        12.83042        -0.84416
   O       17.10736        12.36313        -1.95625
   C       18.28364        13.49309        -0.15449
   C       17.88571        13.89787         1.09978
   C       19.52570        13.61084        -0.81323
   C       20.65445        14.16067        -0.29238
   C       21.88268        14.26563        -0.98113
   S       22.10953        13.72091        -2.63305
   C       23.75602        14.19284        -2.66023
   C       24.14560        14.74792        -1.46481
   C       23.07593        14.78598        -0.51918
   S       23.56302        15.47821         0.98960
   C       25.18977        15.71866         0.35448
   C       26.14777        16.32208         1.27956
   O       25.83260        16.57168         2.42309
   C       27.51999        16.64311         0.72573
   C       27.45573        17.91860        -0.11696
   C       25.34322        15.29006        -0.93006
   H       14.22609         4.87997       -11.19046
   H       11.49501         2.63371       -13.23222
   H       10.10169         3.64226       -11.13651
   H       12.76908         5.86400        -9.08284
   H        9.84698         4.94422        -9.13607
   H       11.46695         6.72094        -7.21239
   H        8.54751         5.79076        -7.27664
   H       11.15998         7.91660        -5.23405
   H        6.67536         8.44622        -2.11009
   H        7.61347         9.89962        -0.10376
   H       10.56745        10.60647        -0.47892
   H        5.99603        11.30134         3.52673
   H        9.42076        13.44432         5.60185
   H       12.01495        11.64394         0.36776
   H       12.65587        13.08805         2.99129
   H       14.12919        12.01778        -0.50387
   H       18.48921        14.40104         1.83260
   H       19.55049        13.21533        -1.82217
   H       20.65866        14.55342         0.71573
   H       24.34039        14.03694        -3.54448
   H       27.88811        15.81075         0.12523
   H       28.19437        16.79875         1.56898
   H       26.78028        17.79568        -0.96049
   H       28.44496        18.16480        -0.49524
   H       27.10138        18.74909         0.48900
   H       26.26216        15.34368        -1.48469
*
