# ORCA input file
# SCF done       -159.888773479753          0.003719503037
! CAM-B3LYP def2-SVP def2/J RIJCOSX Grid4 TightSCF
%maxcore 5000
%tddft
    Mode sTDDFT
    Ethresh 5.0
    maxcore 5000
end

%pal
  nprocs 6
  end
* xyz 0 1
   C        2.15627        -0.11117         5.44468
   S        2.46711        -1.27653         4.23758
   C        1.00879        -2.16339         4.60588
   C        0.30955        -1.52110         5.65257
   C        0.97475        -0.35017         6.12151
   C        0.38257         0.41639         7.14307
   C       -0.82157         0.05302         7.69260
   O       -1.27282         0.86945         8.68260
   C       -2.64425         0.94198         9.00859
   C       -1.47662        -1.13976         7.23439
   O       -2.64750        -1.47528         7.85195
   C       -3.33300        -2.63071         7.43365
   C       -0.91152        -1.89209         6.23074
   C        0.63355        -3.32953         3.94471
   C        1.22730        -3.92447         2.84941
   C        0.78332        -5.11136         2.22874
   C        1.48997        -5.45697         1.11050
   C        2.52186        -4.55702         0.79419
   S        2.60252        -3.27540         1.97904
   C        3.35698        -4.58227        -0.31970
   C        3.35285        -5.51444        -1.36890
   C        4.24842        -5.22419        -2.36349
   C        5.00373        -4.05915        -2.13766
   S        4.54851        -3.34127        -0.61130
   C        5.94116        -3.54259        -3.02348
   C        6.75473        -2.43379        -2.87877
   C        7.65761        -1.93690        -3.84042
   C        8.35246        -0.83608        -3.31417
   C        7.80154        -0.57928        -1.98271
   O        7.99327         0.31171        -1.17934
   N        6.87046        -1.59092        -1.79460
   C        9.24695        -0.39940        -4.30783
   O        9.03852        -1.16844        -5.43717
   C        8.09477        -2.15082        -5.19748
   O        7.77955        -2.95867        -6.03427
   C       10.26637         0.53152        -4.39780
   C       10.89001         1.22068        -3.36433
   C       11.96259         2.12392        -3.51437
   C       12.48769         2.56966        -2.32977
   C       11.83742         2.03195        -1.20718
   S       10.54225         0.96347        -1.68327
   C       12.05177         2.24112         0.15306
   C       13.05851         2.94423         0.83801
   C       12.91701         2.91072         2.19895
   C       11.78178         2.19142         2.64648
   S       10.92665         1.52750         1.27002
   C       11.33100         2.09143         3.94394
   C       10.14020         1.46450         4.35650
   S        9.42944         1.85710         5.92103
   C        8.00034         0.93566         5.65496
   C        8.05117         0.32073         4.42598
   C        9.26427         0.59814         3.71919
   O        9.30240        -0.09367         2.56408
   C        8.11601        -0.74414         2.48236
   N        7.89493        -1.53757         1.34105
   O        6.74415        -1.90740         1.14415
   O        8.83848        -1.82066         0.63608
   C        7.30900        -0.54210         3.57114
   H        2.84332         0.69628         5.59464
   H        0.86686         1.30839         7.50434
   H       -3.26842         1.02120         8.11485
   H       -2.74596         1.85146         9.60196
   H       -2.96790         0.08330         9.60084
   H       -2.73271        -3.53277         7.58758
   H       -3.63059        -2.56210         6.38300
   H       -4.22413        -2.68031         8.05688
   H       -1.40328        -2.78389         5.87978
   H       -0.24871        -3.82936         4.32376
   H       -0.04842        -5.67269         2.61720
   H        1.28227        -6.32495         0.51054
   H        2.69582        -6.36430        -1.37972
   H        4.38304        -5.81564        -3.25095
   H        6.05797        -4.06922        -3.96161
   H        6.40180        -1.72267        -0.90618
   H       10.67648         0.66126        -5.39078
   H       12.32199         2.41596        -4.48562
   H       13.30493         3.26452        -2.24922
   H       13.85828         3.44692         0.32340
   H       13.58583         3.39064         2.89210
   H       11.88949         2.61140         4.71023
   H        7.23570         0.90442         6.40195
   H        6.33815        -0.96577         3.72539
*
