# ORCA input file
# SCF done       -160.451157072734          0.000841191713
! CAM-B3LYP def2-SVP def2/J RIJCOSX Grid4 TightSCF
%maxcore 5000
%tddft
    Mode sTDDFT
    Ethresh 5.0
    maxcore 5000
end

%pal
  nprocs 6
  end
* xyz 0 1
   O        6.61365        -5.84168        12.64999
   C        6.49773        -5.87172        11.29379
   N        6.71000        -7.05128        10.78966
   C        6.98101        -7.85867        11.85931
   C        6.91767        -7.09329        13.00090
   C        7.27535        -9.27783        11.71025
   O        7.53579       -10.02507        12.61798
   C        6.17475        -4.67331        10.59923
   S        5.91703        -3.17531        11.52053
   C        5.62373        -2.40136        10.02626
   C        5.73838        -3.31475         8.96865
   N        6.04529        -4.55874         9.31031
   C        5.46817        -2.64741         7.65717
   C        5.16791        -1.24664         8.10481
   C        5.27937        -1.13956         9.49405
   S        4.92452         0.43656        10.05941
   C        4.55733         0.95599         8.42616
   C        4.76599        -0.05798         7.50631
   C        4.10577         2.29328         8.22547
   C        3.27892         2.76854         7.26363
   C        2.47123         2.06726         6.31203
   C        1.94238         0.76942         6.47312
   C        1.18897         0.10089         5.43230
   N        0.85307        -1.17590         5.58843
   C        1.14420        -1.81372         6.70677
   C        1.73501        -1.10050         7.79105
   N        2.11414         0.14514         7.64963
   C        1.97056        -1.74784         9.02975
   N        2.19876        -2.30756        10.00286
   C        0.84954        -3.18953         6.81764
   N        0.63375        -4.30903         6.94506
   C        0.79920         0.76972         4.23924
   C        1.22335         2.11862         4.14485
   C        2.04869         2.74431         5.14405
   N        2.34691         4.00147         4.81635
   S        1.65339         4.36501         3.41191
   N        0.94600         2.93946         3.13807
   C        0.04971         0.18963         3.19984
   S       -0.43089         1.18067         1.84200
   C       -1.31280        -0.12633         1.06098
   C       -1.16134        -1.31195         1.80899
   C       -0.41880        -1.11196         3.00090
   S       -0.20134        -2.57469         3.88574
   C       -1.04414        -3.46611         2.63614
   C       -1.22790        -4.92256         2.70516
   O       -1.85010        -5.51343         1.84924
   C       -0.58172        -5.59586         3.89128
   C       -0.83488        -7.09595         3.91358
   C       -1.49096        -2.66943         1.61946
   C       -1.98561         0.20909        -0.10856
   C       -2.99468        -0.43003        -0.80683
   C       -3.55766         0.07748        -2.00277
   C       -4.60274        -0.64870        -2.49082
   C       -4.93197        -1.76804        -1.69670
   S       -3.85379        -1.86985        -0.32047
   C       -5.93681        -2.69415        -1.89705
   C       -6.87055        -2.72958        -2.96978
   C       -7.75131        -3.75357        -2.90317
   C       -7.57710        -4.60724        -1.76375
   S       -6.21733        -4.01634        -0.79427
   C       -8.29499        -5.68882        -1.42898
   H        7.06016        -7.32364        14.03666
   H        7.23641        -9.61257        10.65928
   H        4.62494        -3.11103         7.14082
   H        6.33263        -2.69692         6.99218
   H        4.64501         0.08858         6.44741
   H        4.48526         3.00890         8.94497
   H        3.18976         3.84447         7.17681
   H       -0.95710        -5.12942         4.80594
   H        0.49164        -5.38986         3.85423
   H       -1.90279        -7.29538         3.95086
   H       -0.36056        -7.54370         4.78218
   H       -0.43737        -7.55832         3.01344
   H       -2.00585        -3.07614         0.77038
   H       -1.71801         1.18115        -0.50853
   H       -3.16874         0.96597        -2.46801
   H       -5.14103        -0.40462        -3.38860
   H       -6.85335        -1.99369        -3.75369
   H       -8.52825        -3.94614        -3.62127
   H       -9.11597        -6.01560        -2.04266
   H       -8.07604        -6.26039        -0.54569
*
