# ORCA input file
# SCF done       -174.734374496060          0.000808653911
! CAM-B3LYP def2-SVP def2/J RIJCOSX Grid4 TightSCF
%maxcore 5000
%tddft
    Mode sTDDFT
    Ethresh 5.0
    maxcore 5000
end

%pal
  nprocs 6
  end
* xyz 0 1
   C        2.95680        -0.58983        -7.33210
   C        3.60261        -0.47689        -6.13669
   C        2.79381         0.16276        -5.14381
   C        1.56990         0.52906        -5.59526
   S        1.38264         0.10158        -7.25686
   C        3.50403         0.15615        -3.85761
   O        3.08195         0.50715        -2.78158
   C        4.81444        -0.50036        -4.15283
   C        4.86157        -0.90067        -5.53452
   C        5.86771        -1.47916        -6.28924
   N        5.80014        -1.34543        -7.74238
   O        5.85967        -2.35208        -8.40107
   O        5.66787        -0.22237        -8.17422
   N        7.01066        -2.18233        -5.88056
   O        7.03024        -2.70093        -4.76494
   O        7.94879        -2.24159        -6.65495
   C        5.79582        -0.73329        -3.21242
   C        5.98740        -0.11742        -1.96627
   C        6.85327        -0.67449        -1.01199
   O        7.14647        -0.04389         0.15704
   C        6.50149         1.14105         0.38048
   C        5.60341         1.69332        -0.57673
   C        5.05215         2.86149        -0.16332
   S        5.62702         3.30194         1.40089
   C        6.61816         1.89921         1.50037
   O        5.37676         1.09252        -1.77251
   C        7.46101        -1.94342        -1.18313
   C        8.38183        -2.45800        -0.31627
   C        9.06696        -3.68416        -0.43915
   S       10.16534        -4.10337         0.85469
   C       10.60751        -5.59459         0.08206
   C        9.91488        -5.75231        -1.11689
   C        9.06917        -4.67879        -1.42158
   C        8.26249        -4.62899        -2.67764
   C        8.64343        -5.72958        -3.67863
   C        7.58716        -5.84583        -4.66247
   N        6.72218        -5.95741        -5.39913
   C        8.83110        -7.06861        -2.94164
   C        9.06324        -8.14568        -3.87825
   N        9.28191        -8.99542        -4.60895
   C       10.02772        -6.96340        -1.98661
   C       11.57332        -6.42616         0.69796
   S       12.29130        -7.81667        -0.10761
   C       13.28096        -8.12470         1.24784
   C       13.06473        -7.20367         2.27459
   C       12.11214        -6.24510         1.96863
   C       13.96276        -7.56792         3.39277
   O       14.06909        -7.02519         4.46366
   C       14.71532        -8.78161         2.88436
   C       14.27563        -9.07216         1.61633
   C       15.71442        -9.48634         3.59645
   C       16.11117        -9.19213         4.86248
   C       17.12954        -9.91284         5.53434
   S       17.59817        -9.53299         7.17830
   C       18.80052       -10.74951         7.25481
   C       18.86337       -11.44249         6.06827
   C       17.91771       -10.96439         5.10824
   O       18.01077       -11.66308         3.95754
   C       18.99941       -12.57460         4.17034
   N       19.31396       -13.45353         3.10251
   O       20.20109       -14.25785         3.30804
   O       18.68315       -13.33955         2.07486
   C       19.55624       -12.50086         5.41672
   H        3.26899        -1.02952        -8.25808
   H        0.77383         1.01599        -5.06889
   H        6.52968        -1.47713        -3.47806
   H        4.34805         3.47448        -0.68500
   H        7.22246         1.71345         2.36359
   H        7.15961        -2.50822        -2.04198
   H        8.63219        -1.87720         0.56233
   H        8.39013        -3.66666        -3.17644
   H        7.19963        -4.72733        -2.42949
   H        9.57304        -5.46777        -4.19709
   H        7.91896        -7.29604        -2.37539
   H       10.95707        -6.92261        -2.56585
   H       10.07178        -7.86496        -1.36953
   H       11.80552        -5.44709         2.62068
   H       14.62304        -9.87853         0.99662
   H       16.18119       -10.31147         3.07315
   H       15.64982        -8.37941         5.40304
   H       19.37888       -10.88282         8.14554
   H       20.34420       -13.11911         5.79368
*
