# ORCA input file
# SCF done       -181.035575866893          0.000742623279
! CAM-B3LYP def2-SVP def2/J RIJCOSX Grid4 TightSCF
%maxcore 5000
%tddft
    Mode sTDDFT
    Ethresh 5.0
    maxcore 5000
end

%pal
  nprocs 6
  end
* xyz 0 1
   C        1.24053         6.02708        -5.03077
   C        1.56640         4.73710        -4.73777
   C        0.93150         3.80293        -5.62454
   C        0.13893         4.39171        -6.55300
   S        0.16165         6.10748        -6.36962
   C        1.33236         2.43741        -5.27010
   O        1.00137         1.40462        -5.82038
   C        2.26917         2.59799        -4.14545
   C        2.31375         3.98607        -3.74302
   C        2.84227         4.45066        -2.56259
   N        3.05658         5.82529        -2.25876
   O        3.08282         6.14267        -1.08862
   O        3.19260         6.59566        -3.19142
   N        3.15716         3.55696        -1.46420
   O        2.32169         2.72669        -1.17803
   O        4.22417         3.70138        -0.91727
   C        3.12332         1.61535        -3.68554
   C        3.13904         0.24658        -3.94163
   S        1.93816        -0.66264        -4.86093
   C        2.74862        -2.11831        -4.50372
   C        3.91221        -1.92067        -3.72539
   C        4.12886        -0.60498        -3.40835
   C        4.53046        -3.23702        -3.48777
   O        5.53573        -3.48629        -2.86886
   C        3.61495        -4.20826        -4.20542
   C        2.58760        -3.49104        -4.79296
   C        3.79024        -5.60232        -4.25799
   C        4.80801        -6.26325        -3.62387
   C        5.02299        -7.65049        -3.64819
   S        6.37191        -8.30359        -2.72481
   C        5.98458        -9.88787        -3.22906
   C        4.86225        -9.91059        -4.07841
   C        4.32113        -8.66371        -4.31336
   C        4.63047       -11.32178        -4.45428
   O        3.77735       -11.78595        -5.16791
   C        5.72041       -12.08536        -3.73663
   C        6.49405       -11.18679        -3.02345
   C        5.82494       -13.47969        -3.86093
   C        6.76435       -14.25115        -3.22985
   C        6.85046       -15.65224        -3.38615
   C        7.78822       -16.45425        -2.73160
   O        7.84570       -17.81089        -2.92099
   C        6.93374       -18.34004        -3.78137
   C        5.97365       -17.52546        -4.44463
   C        5.15255       -18.23441        -5.25915
   S        5.54335       -19.91196        -5.22486
   C        6.82460       -19.65377        -4.10374
   O        5.92474       -16.17671        -4.25101
   C        8.75146       -15.96385        -1.81998
   C        9.66600       -16.75596        -1.18212
   C       10.59047       -16.20015        -0.27801
   C       11.54407       -16.89825         0.41313
   C       12.50160       -16.35443         1.35402
   C       12.63833       -15.04201         1.73110
   C       11.85835       -13.96470         1.26290
   N       11.26844       -13.03552         0.93215
   C       13.59749       -14.57749         2.65573
   N       14.35148       -14.13160         3.39789
   C       13.31602       -17.46496         1.84533
   C       12.88328       -18.65401         1.23228
   C       11.76633       -18.36566         0.31654
   O       11.16244       -19.16445        -0.36873
   C       13.48471       -19.86579         1.51567
   C       14.53072       -19.88565         2.42310
   C       14.97488       -18.71774         3.04245
   C       14.36284       -17.50009         2.75128
   C       16.09646       -18.77745         4.02977
   H        1.58659         6.93434        -4.57756
   H       -0.45413         3.93627        -7.32050
   H        3.94364         1.93329        -3.05119
   H        4.94549        -0.23657        -2.81328
   H        1.78422        -3.91097        -5.37080
   H        3.06043        -6.15892        -4.83259
   H        5.51306        -5.68043        -3.04764
   H        3.46458        -8.47586        -4.93411
   H        7.34652       -11.41792        -2.41192
   H        5.09619       -13.95188        -4.50601
   H        7.47793       -13.77396        -2.58109
   H        4.35201       -17.86983        -5.86798
   H        7.41829       -20.46953        -3.74801
   H        8.75976       -14.90529        -1.61447
   H        9.68721       -17.81943        -1.36429
   H       10.52549       -15.13024        -0.12678
   H       13.13796       -20.76701         1.03377
   H       15.01658       -20.82098         2.65997
   H       14.71483       -16.60406         3.23625
   H       16.90852       -19.39584         3.65254
   H       15.74628       -19.22254         4.96131
   H       16.47819       -17.78387         4.24830
*
