# ORCA input file
# SCF done       -178.742176800822          0.000374216887
! CAM-B3LYP def2-SVP def2/J RIJCOSX Grid4 TightSCF
%maxcore 5000
%tddft
    Mode sTDDFT
    Ethresh 5.0
    maxcore 5000
end

%pal
  nprocs 6
  end
* xyz 0 1
   C      -11.11626        -0.60914        -3.94548
   C      -12.28157        -0.24519        -3.30810
   C      -13.56359        -0.32240        -3.88750
   N      -14.63694        -0.32243        -4.29720
   C      -12.39463         0.26148        -2.00162
   N      -12.59612         0.64479        -0.93556
   C      -11.05233        -1.24983        -5.25413
   C       -9.69438        -1.47155        -5.58380
   C       -9.30451        -2.06687        -6.75729
   C      -10.30540        -2.47127        -7.64836
   C      -11.66029        -2.24962        -7.30862
   C      -12.05392        -1.64361        -6.12175
   S      -12.73276        -2.82120        -8.55140
   C      -11.36410        -3.34270        -9.49702
   C      -10.16550        -3.10311        -8.91426
  Br      -11.64663        -4.15349       -11.16485
   C       -8.83098        -0.93864        -4.50534
   O       -7.62424        -0.84624        -4.55018
   C       -9.76323        -0.44539        -3.46191
   C       -9.44137         0.22867        -2.30813
   C       -8.17822         0.38030        -1.69633
   C       -7.91285         1.41308        -0.79218
   O       -6.66920         1.61912        -0.26437
   C       -5.69036         0.76403        -0.68792
   C       -5.97202        -0.30832        -1.58170
   C       -4.87223        -1.04029        -1.88675
   S       -3.47606        -0.42976        -1.08070
   C       -4.38385         0.82590        -0.32835
   O       -7.22762        -0.54133        -2.04245
   C       -8.88696         2.36083        -0.39782
   C       -8.62467         3.52224         0.26566
   C       -9.59449         4.49092         0.60126
   S       -9.04101         6.08832         1.06082
   C      -10.66276         6.73593         1.07182
   C      -11.57912         5.69974         0.87170
   C      -10.98969         4.46687         0.57111
   S      -11.91919         3.05418         0.06873
   C      -13.43859         3.78149        -0.54290
   O      -13.91933         3.37595        -1.55800
   C      -14.16451         4.73273         0.37635
   O      -15.35884         4.66924         0.48566
   S      -13.26077         5.87470         1.36340
   C      -10.87868         8.12352         1.15056
   C      -11.87925         8.80538         0.49603
   C      -12.11593        10.20306         0.53209
   C      -13.10327        10.62975        -0.30555
   C      -13.70242         9.59503        -1.05585
   S      -12.95988         8.06173        -0.66504
   C      -14.73855         9.64534        -1.96820
   C      -15.44633        10.77923        -2.43353
   C      -16.41705        10.48175        -3.33802
   C      -16.53181         9.09710        -3.63179
   S      -15.35007         8.18591        -2.71357
   C      -17.41797         8.51556        -4.49825
   C      -17.50149         7.12919        -4.73407
   O      -16.70524         6.25550        -4.08602
   C      -17.00537         5.00427        -4.49920
   C      -18.01786         5.05925        -5.44172
   C      -18.33889         6.41409        -5.59478
   C      -19.35837         7.00141        -6.49785
   F      -20.29121         7.71557        -5.83473
   F      -18.82249         7.85918        -7.39263
   F      -20.01592         6.07673        -7.20450
   C      -16.28230         3.89703        -3.93871
   C      -16.47549         2.62454        -4.28383
   H       -8.26039        -2.21835        -6.98202
   H      -13.09958        -1.49491        -5.91053
   H       -9.22078        -3.35949        -9.35784
   H      -10.26225         0.71069        -1.80245
   H       -4.80880        -1.88830        -2.53503
   H       -3.91156         1.52628         0.32817
   H       -9.90149         2.15169        -0.67840
   H       -7.59922         3.77996         0.49315
   H      -10.12551         8.71165         1.65658
   H      -11.55047        10.84616         1.18277
   H      -13.41723        11.65388        -0.39815
   H      -15.21732        11.77230        -2.09109
   H      -17.06185        11.20422        -3.80579
   H      -18.10598         9.14653        -5.03999
   H      -18.47271         4.23739        -5.95386
   H      -15.54872         4.15907        -3.18991
   H      -17.20126         2.33522        -5.02439
   H      -15.90339         1.83254        -3.83466
*
