# ORCA input file
# SCF done       -141.182371901450          0.000405377165
! CAM-B3LYP def2-SVP def2/J RIJCOSX Grid4 TightSCF
%maxcore 5000
%tddft
    Mode sTDDFT
    Ethresh 5.0
    maxcore 5000
end

%pal
  nprocs 6
  end
* xyz 0 1
   C        1.88441        -4.30040         4.24135
   S        1.90298        -3.36473         2.80035
   C        1.16083        -4.64000         1.87653
   C        0.92677        -5.72360         2.69476
   C        1.33732        -5.54002         4.04598
   C        1.07046        -6.70143         4.83542
   C        0.49653        -7.69646         4.12842
   C        0.08129        -9.04114         4.60238
   S        0.23494        -7.28320         2.42810
   C        0.85000        -4.58424         0.49110
   O        0.27621        -5.68153        -0.03721
   C        0.06173        -5.46289        -1.35989
   C        0.50455        -4.19842        -1.69098
   C        1.00993        -3.62982        -0.50500
   C        1.59266        -2.27250        -0.37057
   F        2.87422        -2.28865         0.04869
   F        1.58615        -1.60421        -1.53096
   F        0.92730        -1.50059         0.51312
   C       -0.54002        -6.48069        -2.14844
   C       -0.95353        -7.65826        -1.62086
   C       -1.55457        -8.71226        -2.34319
   S       -1.78977        -8.66174        -4.07533
   C       -2.52954       -10.23688        -4.10534
   C       -2.58484       -10.75018        -2.82364
   C       -2.03746        -9.90961        -1.82541
   C       -2.12169       -10.50260        -0.53403
   C       -2.70229       -11.72403        -0.55335
   C       -2.96045       -12.63448         0.59107
   S       -3.18847       -12.23283        -2.17180
   C       -2.99777       -10.89496        -5.26994
   O       -3.57313       -12.10205        -5.09516
   C       -3.94542       -12.58176        -6.30846
   C       -3.60459       -11.66862        -7.28614
   C       -2.99700       -10.58437        -6.62516
   C       -2.46124        -9.36402        -7.27557
   F       -3.06253        -8.23292        -6.85409
   F       -1.14317        -9.18409        -7.05378
   F       -2.61528        -9.39565        -8.60600
   C       -4.58216       -13.84928        -6.40396
   C       -4.85652       -14.61456        -5.32191
   C       -5.48691       -15.88031        -5.35140
   S       -5.98702       -16.66233        -6.83601
   C       -6.60818       -18.03545        -6.00266
   C       -6.44150       -17.89984        -4.66027
   C       -5.80603       -16.68385        -4.26819
   C       -5.66158       -16.59461        -2.85628
   C       -6.15487       -17.67245        -2.20441
   C       -6.18206       -17.92544        -0.74182
   S       -6.83728       -18.88824        -3.28422
   H        2.27831        -3.88097         5.14491
   H        1.30513        -6.77070         5.88206
   H        0.29636        -9.14922         5.66237
   H        0.61178        -9.81840         4.05269
   H       -0.98622        -9.18867         4.44096
   H        0.47259        -3.73334        -2.65428
   H       -0.65945        -6.27078        -3.20082
   H       -0.82734        -7.82588        -0.55938
   H       -1.76138       -10.03003         0.36185
   H       -2.59693       -12.18927         1.51381
   H       -2.46044       -13.59061         0.43837
   H       -4.02810       -12.82973         0.68981
   H       -3.76640       -11.75938        -8.34009
   H       -4.84436       -14.18002        -7.39797
   H       -4.58239       -14.24844        -4.34128
   H       -7.04983       -18.84080        -6.55289
   H       -5.20839       -15.75713        -2.35679
   H       -5.73255       -17.09168        -0.20807
   H       -5.63478       -18.83693        -0.50220
   H       -7.20768       -18.05597        -0.39703
*
