# ORCA input file
# SCF done        -90.950827163081          0.000493615286
! CAM-B3LYP def2-SVP def2/J RIJCOSX Grid4 TightSCF
%maxcore 5000
%tddft
    Mode sTDDFT
    Ethresh 5.0
    maxcore 5000
end

%pal
  nprocs 6
  end
* xyz 0 1
   C       -0.95541         0.49510        -2.12473
   C       -0.11629        -0.24824        -2.89398
   C        0.17897        -1.52509        -2.38014
   C       -0.42005        -1.83199        -1.18377
  Se       -1.48777        -0.39559        -0.58967
   C       -0.29288        -3.04505        -0.44860
   C       -0.88552        -3.35768         0.75238
   C       -0.59325        -4.62529         1.26569
   C        0.25188        -5.39354         0.49681
  Se        0.77294        -4.47216        -1.06370
   C        0.71594        -6.70565         0.77139
   C        1.57143        -7.47054         0.00307
   C        1.82276        -8.71898         0.57458
   C        1.14998        -8.90791         1.79155
   S        0.20970        -7.54933         2.23134
   C        1.47128       -10.19624         2.29135
   C        2.34709       -10.82066         1.39014
   C        2.59619        -9.91481         0.27978
   C        3.38850       -10.13967        -0.80747
   C        4.09091       -11.34963        -0.98709
   N        4.66297       -12.33185        -1.13901
   C        3.55806        -9.17812        -1.82529
   N        3.70056        -8.39921        -2.65472
   C        2.72976       -12.09838         1.80138
   C        2.15483       -12.45499         3.00540
   S        1.11672       -11.18355         3.64166
   C        2.33056       -13.66944         3.71711
   C        1.74499       -14.03575         4.90809
   C        2.10850       -15.29617         5.39282
   C        3.00222       -16.00127         4.62122
  Se        3.47951       -15.02361         3.08268
   C        3.54064       -17.29259         4.88716
   C        4.45653       -17.97768         4.12816
   C        4.82825       -19.24159         4.62424
   C        4.22057       -19.59817         5.78696
  Se        3.05236       -18.29963         6.40514
   H       -1.30612         1.48957        -2.33229
   H        0.29230         0.10908        -3.82407
   H        0.83039        -2.22724        -2.88078
   H       -1.53407        -2.65622         1.25661
   H       -0.99590        -4.98485         2.19851
   H        1.98325        -7.11514        -0.92747
   H        3.39523       -12.75457         1.26442
   H        1.05545       -13.38802         5.42437
   H        1.72235       -15.70311         6.31595
   H        4.85709       -17.56030         3.21535
   H        5.53942       -19.87411         4.12027
   H        4.36133       -20.51425         6.33110
*
