# ORCA input file
# SCF done       -191.603492857381          0.000659245898
! CAM-B3LYP def2-SVP def2/J RIJCOSX Grid4 TightSCF
%maxcore 5000
%tddft
    Mode sTDDFT
    Ethresh 5.0
    maxcore 5000
end

%pal
  nprocs 6
  end
* xyz 0 1
   C        4.69785         7.71738        -2.23424
   C        4.05392         8.87337        -1.88810
   F        3.36661         9.55119        -2.82053
   C        4.08159         9.38790        -0.58389
   C        4.77651         8.71221         0.38002
   C        5.45898         7.51547         0.07854
   C        5.42092         7.00907        -1.25489
   C        6.10795         5.81776        -1.58300
   C        6.80773         5.15587        -0.60903
   C        6.82953         5.65904         0.72639
   C        6.17784         6.80970         1.06821
   C        7.62374         4.76125         1.58356
   O        7.91558         4.89243         2.74471
   C        7.95119         3.59042         0.70439
   C        7.63721         3.96111        -0.66721
   C        8.22094         3.43688        -1.79257
   C        9.26162         2.49462        -1.71068
   N       10.14997         1.77894        -1.57534
   C        7.91622         3.83521        -3.10562
   N        7.68857         4.11571        -4.19496
   C        8.31681         2.40422         1.23389
   C        8.28425         1.15878         0.51877
   C        9.15796         0.09628         0.47662
   C       10.48013        -0.03674         1.16429
   O       10.60612        -0.45007         2.28014
   O       11.50637         0.34792         0.40988
   C        8.61533        -0.74227        -0.54704
   N        7.50160        -0.21799        -1.01016
   O        7.29945         0.95080        -0.38121
   C        9.18187        -1.93876        -1.12132
   C        8.91455        -2.24432        -2.42674
   C        9.47004        -3.33047        -3.10771
   C       10.27215        -4.32738        -2.38195
   C       10.64829        -4.20341        -1.08758
   S       10.23905        -2.87335        -0.08895
   C       10.55312        -5.34729        -3.32982
   C        9.99667        -5.00481        -4.56410
   C       10.26424        -5.97258        -5.55678
   C       10.99584        -7.00461        -5.06108
   S       11.39571        -6.84482        -3.38356
   C        9.34020        -3.72925        -4.44739
   C        8.74094        -3.04878        -5.53973
   C        8.45873        -1.72449        -5.59056
   C        7.85400        -1.09514        -6.70904
   C        7.49746         0.24222        -6.88846
   C        7.66849         1.33447        -5.93296
   O        8.05074         1.18223        -4.79209
   O        7.34111         2.52126        -6.43498
   C        6.96004         0.26707        -8.20791
   N        6.97959        -0.94225        -8.72695
   O        7.51897        -1.77858        -7.81400
   C        6.40650         1.38058        -8.93553
   C        6.44146         1.53654       -10.27153
   C        5.51503         2.49738       -10.94806
   O        4.91850         3.41186       -10.43386
   C        5.44334         2.02932       -12.34473
   C        4.62130         2.45474       -13.34965
   C        4.69250         1.82590       -14.61199
   C        5.61700         0.75811       -14.81015
   C        5.67197         0.12624       -16.06822
   C        4.84237         0.54943       -17.06868
   C        3.92871         1.59872       -16.89461
   C        3.86199         2.22330       -15.68073
   F        4.89164        -0.05345       -18.26983
   C        6.46243         0.34389       -13.75592
   C        6.38128         0.97376       -12.54258
   C        7.12573         0.77119       -11.30574
   C        8.34318         0.16636       -11.19614
   C        9.13236         0.18401       -10.02481
   N        9.84305         0.21581        -9.12476
   C        8.99607        -0.47663       -12.26955
   N        9.56409        -1.01082       -13.11113
   H        4.65654         7.35349        -3.24887
   H        3.55432        10.30405        -0.37031
   H        4.81205         9.08855         1.39105
   H        6.05503         5.44842        -2.59514
   H        6.21334         7.17823         2.08232
   H        8.60478         2.36995         2.27724
   H       11.23455         0.74498        -0.44639
   H        8.22654        -1.58355        -2.93128
   H       11.26218        -4.94002        -0.59300
   H        9.93733        -5.91370        -6.57888
   H       11.34048        -7.87584        -5.58318
   H        8.53806        -3.64825        -6.41863
   H        8.70850        -1.04620        -4.79209
   H        7.46581         3.22410        -5.75572
   H        5.86711         2.11879        -8.35546
   H        3.92085         3.25909       -13.18142
   H        6.36526        -0.68252       -16.23843
   H        3.29925         1.88852       -17.72102
   H        3.16597         3.03325       -15.52260
   H        7.14566        -0.47290       -13.92706
*
