# ORCA input file
# SCF done       -283.896863231506          0.000370251186
! CAM-B3LYP def2-SVP def2/J RIJCOSX Grid4 TightSCF
%maxcore 5000
%tddft
    Mode sTDDFT
    Ethresh 5.0
    maxcore 5000
end

%pal
  nprocs 6
  end
* xyz 0 1
   C       -5.11819        -0.68258         3.29712
   C       -4.47804         0.35207         3.87850
   C       -3.19494         0.60090         3.30913
   C       -2.26885         1.60223         3.65335
   C       -2.58425         2.60978         4.64796
   C       -3.74847         3.30516         4.79800
   C       -3.70456         4.21228         5.87983
   C       -2.52525         4.21794         6.56481
   S       -1.42440         3.08238         5.85932
   C       -2.13596         5.02998         7.74533
  Cl       -5.04105         5.22217         6.28501
   C       -1.05091         1.57798         2.98489
   C       -0.73855         0.64216         1.96896
   C       -1.69206        -0.31772         1.57852
   C       -2.89056        -0.32760         2.28621
   S       -4.21513        -1.43027         2.02694
   C       -1.43137        -1.22005         0.47525
   C       -0.86056        -0.91996        -0.72841
   C       -0.76608        -2.04100        -1.58111
   C       -1.25011        -3.19881        -1.04543
   S       -1.85150        -2.90871         0.55221
   C       -1.30097        -4.55370        -1.64990
  Cl       -0.09597        -1.93517        -3.16464
   C        0.57803         0.81729         1.47369
   C        1.24006         1.86644         2.04389
   S        0.26306         2.69024         3.24287
   C        2.56120         2.32411         1.76880
   C        3.52256         1.72277         0.98139
   C        4.69992         2.47453         0.93044
   C        4.62327         3.65652         1.68046
   S        3.11757         3.83869         2.45900
   C        5.85314         4.35670         1.54729
   C        6.70672         3.61408         0.72252
   C        6.01551         2.40255         0.31039
   C        6.49768         1.40566        -0.48669
   C        5.72831         0.27072        -0.81672
   N        5.10576        -0.65474        -1.08352
   C        7.79898         1.44290        -1.02890
   N        8.85861         1.47176        -1.46683
   C        7.94319         4.24054         0.51906
   C        8.03018         5.45081         1.16958
   S        6.55965         5.81876         2.06208
   C        9.11884         6.39840         1.17760
   C        8.91216         7.70281         1.63653
   C        9.93154         8.62609         1.62677
   C       11.20755         8.27597         1.18261
   C       11.41931         6.97444         0.72710
   C       10.39526         6.05272         0.71938
   C       12.26486         9.29431         1.16428
   C       11.84342        10.60448         0.63327
   C       11.12496        10.66994        -0.55861
   C       10.72053        11.88936        -1.06841
   C       11.01379        13.05954        -0.38830
   C       11.70692        13.00253         0.80967
   C       12.11818        11.78559         1.31888
   C       13.52123         9.07302         1.61192
   C       13.92621         7.84134         2.30534
   C       15.15169         7.25033         2.00215
   C       15.55294         6.09546         2.64665
   C       14.74439         5.52177         3.61372
   C       13.53498         6.11462         3.93831
   C       13.12769         7.26592         3.29206
   C       14.56527        10.09877         1.46358
   C       15.32382        10.48959         2.56646
   C       16.22328        11.52776         2.46560
   C       16.42113        12.18833         1.25027
   C       15.71551        11.74264         0.12762
   C       14.79897        10.72120         0.23752
   C       17.29216        13.33707         1.16451
   C       17.86153        13.90015         0.04563
   C       18.57923        15.06536         0.34393
   C       18.54463        15.39030         1.70535
   S       17.65813        14.25497         2.61824
   C       19.24985        16.61034         1.89920
   C       19.73503        17.04713         0.65903
   C       19.33959        16.08586        -0.35985
   C       19.61304        16.13858        -1.69510
   C       19.15888        15.14961        -2.59233
   N       18.78845        14.34804        -3.32416
   C       20.36487        17.18462        -2.27013
   N       20.97589        18.03060        -2.74525
   C       20.40783        18.26981         0.73935
   C       20.42703        18.76471         2.02598
   S       19.61638        17.69744         3.16318
   C       20.97039        20.00022         2.47534
   C       20.92219        20.52525         3.73360
   C       21.51925        21.80553         3.84026
   C       21.65680        22.60859         4.98843
   C       21.09302        22.24216         6.27149
   C       21.62803        22.44182         7.51160
   C       20.76994        22.02372         8.55180
   C       19.57566        21.51599         8.13193
   S       19.50156        21.53894         6.40251
   C       18.44442        20.99835         8.94227
  Cl       21.21065        22.15287        10.21149
   C       22.34690        23.80821         4.82612
   C       22.88396        24.23887         3.59024
   C       22.74108        23.43934         2.44187
   C       22.05294        22.24087         2.60257
   S       21.77497        21.06800         1.34363
   C       23.27808        23.81670         1.14864
   C       22.69938        23.65412        -0.07667
   C       23.52961        24.08377        -1.13514
   C       24.74499        24.56192        -0.74195
   S       24.87536        24.49532         0.98333
   C       25.85642        25.08348        -1.57664
  Cl       23.03151        24.00377        -2.78128
   C       23.47375        25.53287         3.69779
   C       23.39365        26.04643         4.94140
   S       22.60528        25.00164         6.06998
   H       -6.08660        -1.07613         3.53681
   H       -4.87998         0.91552         4.69999
   H       -4.59423         3.21106         4.14226
   H       -2.95102         5.69596         8.01737
   H       -1.24977         5.62423         7.52557
   H       -1.90620         4.38713         8.59462
   H       -0.55797         0.06858        -1.02080
   H       -0.95121        -4.50906        -2.67826
   H       -2.31868        -4.94136        -1.63566
   H       -0.67014        -5.24639        -1.09322
   H        1.01952         0.17646         0.73393
   H        3.36996         0.78542         0.47957
   H        8.72993         3.83861        -0.09216
   H        7.93282         7.99187         1.99106
   H        9.75030         9.63183         1.97766
   H       12.39641         6.69184         0.36453
   H       10.58513         5.05261         0.36229
   H       10.89803         9.75706        -1.09128
   H       10.17366        11.92708        -1.99916
   H       10.69782        14.01207        -0.78694
   H       11.92600        13.91096         1.35162
   H       12.64548        11.74468         2.26071
   H       15.78164         7.69619         1.24525
   H       16.50036         5.64184         2.39476
   H       15.05827         4.61963         4.11738
   H       12.90735         5.67890         4.70193
   H       12.19160         7.73364         3.55976
   H       15.17363         9.99476         3.51534
   H       16.78052        11.84309         3.33662
   H       15.86299        12.22550        -0.82572
   H       14.24569        10.40213        -0.63305
   H       17.77076        13.48026        -0.93907
   H       20.85525        18.79024        -0.08833
   H       20.47585        19.99991         4.55798
   H       22.60963        22.83974         7.68844
   H       18.72012        20.99477         9.99384
   H       18.18528        19.98509         8.63796
   H       17.56127        21.62376         8.81198
   H       21.70601        23.27594        -0.23047
   H       25.55617        25.08780        -2.62142
   H       26.74412        24.46087        -1.46699
   H       26.11926        26.09756        -1.27772
   H       23.92348        26.05257         2.87279
   H       23.75506        26.99494         5.28722
*
