# ORCA input file
# SCF done       -275.677984961534          0.000743741341
! CAM-B3LYP def2-SVP def2/J RIJCOSX Grid4 TightSCF
%maxcore 5000
%tddft
    Mode sTDDFT
    Ethresh 5.0
    maxcore 5000
end

%pal
  nprocs 6
  end
* xyz 0 1
   C        2.08511        -5.62521        -5.76044
   C        3.39737        -5.56281        -5.46099
   C        3.78242        -4.30876        -4.90036
   C        5.06129        -3.89055        -4.49293
   C        6.24356        -4.71841        -4.63568
   C        7.27809        -4.85454        -3.75607
   C        8.29953        -5.70073        -4.24010
   C        8.07209        -6.20921        -5.48461
   S        6.54966        -5.64099        -6.08330
   C        8.92449        -7.11820        -6.29204
  Cl        9.71236        -6.05134        -3.31890
   C        5.15176        -2.61290        -3.94796
   C        4.04731        -1.73775        -3.81854
   C        2.77218        -2.14692        -4.24963
   C        2.67626        -3.43777        -4.76610
   S        1.21985        -4.17937        -5.37369
   C        1.61137        -1.28058        -4.19667
   C        0.32536        -1.61815        -3.88780
   C       -0.56853        -0.53114        -4.00194
   C        0.00787         0.63693        -4.40559
   S        1.70654         0.40296        -4.64420
   C       -0.62484         1.96062        -4.63499
  Cl       -2.24875        -0.68608        -3.65648
   C        4.42116        -0.50440        -3.22276
   C        5.74744        -0.40253        -2.93705
   S        6.61541        -1.85779        -3.39007
   C        6.46170         0.69380        -2.32002
   C        7.86070         0.73376        -2.38254
   C        8.54136         1.76567        -1.78369
   C        7.84142         2.75040        -1.06493
   C        6.45605         2.72523        -1.00557
   C        5.77509         1.70650        -1.64164
   C        8.80189         3.63296        -0.43633
   C       10.09317         3.20044        -0.77779
   C       10.02949         2.02220        -1.72682
   C       10.57673         2.50712        -3.09006
   C       10.41912         1.53487        -4.25156
   C       10.80961         0.80868        -1.20158
   C       10.35744         0.38906         0.19247
   C       11.19855         3.84952        -0.28431
   C       11.03724         4.92728         0.59740
   C        9.74370         5.35255         0.91955
   C        8.62843         4.72075         0.40653
   C       12.21994         5.55793         1.15142
   C       12.26425         6.24501         2.30194
   C       13.44873         6.83685         2.89193
   C       13.45490         7.08765         4.27145
   C       14.57615         7.61288         4.86474
   C       15.70861         7.93032         4.09597
   C       15.70596         7.70975         2.72637
   C       14.58280         7.16122         2.13909
   C       16.72795         8.46031         4.97705
   C       16.22867         8.45704         6.29083
   C       14.81559         7.92418         6.32323
   C       14.71436         6.65498         7.18971
   C       15.66054         5.55076         6.73370
   C       13.82749         8.98421         6.84363
   C       13.86528        10.27443         6.03352
   C       17.00801         8.88946         7.33406
   C       18.31410         9.34654         7.09161
   C       18.79120         9.35575         5.77376
   C       18.01327         8.91709         4.72152
   C       19.10633         9.76232         8.22541
   C       20.34776        10.28309         8.17930
   C       21.16597        10.66555         9.29691
   C       20.88003        10.54688        10.65046
   F       19.70136        10.03921        11.06336
   C       21.76808        10.92464        11.67042
   F       21.34211        10.73849        12.93439
   C       23.03008        11.45427        11.44749
   C       23.35073        11.60467        10.07551
   C       22.44508        11.22217         9.04460
   N       23.03523        11.49593         7.87177
   N       24.19064        12.00133         8.19979
   N       24.44599        12.09516         9.47623
   C       25.14325        12.42435         7.21979
   C       23.95457        11.83196        12.47873
   C       25.23376        12.25882        12.26953
   C       25.92547        12.59385        13.45596
   C       27.23685        13.09463        13.57691
   C       28.01783        13.39270        12.39425
   C       27.58199        13.95106        11.22622
   C       28.60287        14.04902        10.25767
   C       29.81832        13.58243        10.66311
   S       29.71317        13.00202        12.29209
   C       31.09797        13.53175         9.91123
  Cl       28.31168        14.69951         8.68730
   C       27.70896        13.28385        14.87098
   C       26.92328        13.04965        16.02559
   C       25.59898        12.59199        15.90234
   C       25.13743        12.35951        14.60856
   S       23.54852        11.79166        14.18146
   C       24.73335        12.37593        17.04574
   C       23.83604        11.36547        17.23676
   C       23.11715        11.49359        18.44536
   C       23.43743        12.59649        19.18081
   S       24.67062        13.50506        18.37349
   C       22.88355        13.04171        20.48452
  Cl       21.93603        10.34099        18.93610
   C       27.65897        13.31799        17.21787
   C       28.91196        13.75287        16.97829
   S       29.29624        13.86515        15.29655
   H        1.54401        -6.44738        -6.18601
   H        4.07814        -6.37764        -5.62205
   H        7.30696        -4.40080        -2.78313
   H        9.82025        -7.37278        -5.73104
   H        9.21639        -6.64129        -7.22733
   H        8.38683        -8.03379        -6.53637
   H        0.01983        -2.59319        -3.55757
   H       -1.68188         1.90804        -4.38642
   H       -0.52177         2.25979        -5.67791
   H       -0.15229         2.72504        -4.01912
   H        3.71790         0.28124        -3.02148
   H        8.38387        -0.06095        -2.89363
   H        5.91492         3.48289        -0.45870
   H        4.69812         1.67316        -1.58729
   H       11.63623         2.73858        -2.95790
   H       10.06525         3.43995        -3.34273
   H       10.90236         0.58418        -4.04293
   H       10.88098         1.95909        -5.14080
   H        9.36958         1.35709        -4.46902
   H       11.87338         1.05517        -1.18030
   H       10.67208        -0.02932        -1.88598
   H       10.50211         1.19868         0.90454
   H       10.92953        -0.47259         0.52904
   H        9.30293         0.12177         0.18751
   H       12.19590         3.52209        -0.54280
   H        9.61573         6.20479         1.56971
   H        7.63782         5.06689         0.66226
   H       13.13401         5.38786         0.59714
   H       11.36532         6.33336         2.89868
   H       12.58013         6.84417         4.85827
   H       16.56841         7.96099         2.12658
   H       14.57149         6.99704         1.07210
   H       13.68626         6.28810         7.15428
   H       14.93890         6.91964         8.22509
   H       15.43811         5.25204         5.71159
   H       15.55726         4.68006         7.37727
   H       16.69359         5.88897         6.77504
   H       14.06655         9.20359         7.88635
   H       12.81885         8.56635         6.81307
   H       14.85698        10.72009         6.06764
   H       13.15197        10.99029         6.43572
   H       13.61176        10.08212         4.99322
   H       16.63057         8.88136         8.34689
   H       19.79295         9.70318         5.57418
   H       18.40316         8.92587         3.71428
   H       18.62243         9.62091         9.18080
   H       20.83674        10.45236         7.23052
   H       25.60703        11.55707         6.74822
   H       25.90477        13.01862         7.71903
   H       24.63956        13.01249         6.45474
   H       25.66123        12.30121        11.28721
   H       26.58505        14.31674        11.06710
   H       30.96385        13.96757         8.92408
   H       31.43708        12.50229         9.79954
   H       31.87388        14.08390        10.44019
   H       23.70479        10.53847        16.56439
   H       22.12173        12.34021        20.81505
   H       22.43870        14.03224        20.39499
   H       23.66846        13.09360        21.23859
   H       27.26280        13.17862        18.20623
   H       29.66478        14.01881        17.69417
*
