# ORCA input file
# SCF done       -189.818910631855          0.000953626124
! CAM-B3LYP def2-SVP def2/J RIJCOSX Grid4 TightSCF
%maxcore 5000
%tddft
    Mode sTDDFT
    Ethresh 5.0
    maxcore 5000
end

%pal
  nprocs 6
  end
* xyz 0 1
   C        4.32198        -0.18905        -6.25552
   C        4.21267         0.40392        -7.47461
   S        5.71272         0.34021        -8.32700
   C        6.51808        -0.50213        -7.02796
   C        7.94262        -0.89216        -7.10479
   C        5.63736        -0.70337        -6.00858
   C        5.67548        -1.32634        -4.69074
   O        6.62068        -1.87723        -4.15533
   C        4.31747        -1.14649        -4.12792
   C        3.48346        -0.46006        -5.10620
   C        2.15865        -0.12248        -5.01489
   C        1.50252         0.54121        -6.07335
   N        0.95615         1.08171        -6.92513
   C        1.30847        -0.37806        -3.92177
   N        0.56459        -0.55717        -3.06499
   C        3.91812        -1.52984        -2.87971
   C        4.63220        -2.19465        -1.85992
   S        6.26642        -2.79487        -1.91930
   C        6.15744        -3.39907        -0.29867
   C        4.89492        -3.13009         0.26293
   C        4.05229        -2.46381        -0.62270
   C        4.48187        -3.48135         1.55959
   N        4.11385        -3.75105         2.61305
   C        7.27684        -4.06160         0.25300
   C        7.36476        -4.53063         1.52980
   C        8.50246        -5.21217         2.01383
   N        8.62869        -5.66017         3.30559
   C        7.69493        -5.44793         4.38640
   C        7.78212        -4.02902         4.94193
   C        9.84880        -6.33510         3.51499
   O       10.18357        -6.81623         4.57525
   C       10.49908        -6.28856         2.22192
   C        9.66356        -5.59493         1.32822
   C       10.33052        -5.56722         0.04419
   O       10.02002        -5.07118        -1.01999
   N       11.53583        -6.26570         0.25091
   C       12.44474        -6.44867        -0.85608
   C       12.25344        -7.80581        -1.52958
   C       11.65131        -6.71362         1.54782
   C       12.67158        -7.44858         2.18631
   C       13.79434        -8.02296         1.66474
   C       14.74027        -8.74395         2.42610
   C       15.85208        -9.38601         1.90828
   C       16.57134       -10.00915         2.95868
   C       15.82817        -9.69923         4.19710
   C       14.74199        -8.95389         3.86854
   C       16.16612       -10.09226         5.49742
   N       16.41980       -10.39551         6.57596
   C       17.72042       -10.76695         2.85963
   C       18.44153       -11.39760         3.90888
   C       19.52586       -12.07285         3.37983
   C       19.50756       -11.87656         1.93688
   C       18.44056       -11.09906         1.61636
   C       18.10580       -10.69326         0.31988
   N       17.85897       -10.36000        -0.75180
   C       20.46480       -12.82924         4.11858
   C       21.52015       -13.50247         3.58049
   C       22.40278       -14.27109         4.36699
   C       23.38935       -15.11365         3.94324
   C       24.44051       -15.53956         4.92014
   O       24.40653       -15.38763         6.12081
   C       25.50366       -16.11320         4.09511
   C       26.75193       -16.61287         4.30532
   S       27.43862       -17.11579         2.78055
   C       26.02986       -16.65384         1.89481
   C       25.08523       -16.13494         2.72289
   C       23.72896       -15.62635         2.63023
   C       22.91994       -15.80218         1.53591
   C       23.42519       -16.36006         0.34259
   N       23.82687       -16.79325        -0.64136
   C       21.53298       -15.56632         1.47827
   N       20.39810       -15.42932         1.36711
   C       27.48642       -16.75178         5.58200
   H        3.36727         0.87358        -7.93612
   H        8.12711        -1.50797        -7.98435
   H        8.21146        -1.44958        -6.21023
   H        8.57744        -0.00910        -7.17949
   H        2.89871        -1.29420        -2.59684
   H        3.04292        -2.17870        -0.37959
   H        8.11890        -4.19167        -0.41583
   H        6.54047        -4.39038         2.21180
   H        7.96858        -6.16520         5.16504
   H        6.67968        -5.66630         4.04475
   H        8.78561        -3.83349         5.31236
   H        7.07923        -3.91543         5.76191
   H        7.54333        -3.29454         4.17606
   H       13.47153        -6.30763        -0.51174
   H       12.20642        -5.65705        -1.57314
   H       12.37027        -8.62115        -0.81903
   H       12.98123        -7.92763        -2.32696
   H       11.25589        -7.86487        -1.95786
   H       12.47916        -7.56985         3.24472
   H       14.01133        -7.97017         0.60893
   H       16.12868        -9.41710         0.87268
   H       14.00742        -8.57703         4.55513
   H       18.17915       -11.35258         4.94784
   H       20.21059       -12.29378         1.24134
   H       20.29348       -12.89248         5.18626
   H       21.70200       -13.44119         2.51873
   H       22.34335       -14.14562         5.44386
   H       26.01107       -16.79231         0.83240
   H       26.87762       -16.35255         6.39009
   H       28.43294       -16.21352         5.54263
   H       27.70801       -17.79931         5.78504
*
