# ORCA input file
# SCF done       -206.736108481627          0.000803023356
! CAM-B3LYP def2-SVP def2/J RIJCOSX Grid4 TightSCF
%maxcore 5000
%tddft
    Mode sTDDFT
    Ethresh 5.0
    maxcore 5000
end

%pal
  nprocs 6
  end
* xyz 0 1
   C       -3.44788        -3.29354        -3.84502
   O       -3.84564        -4.09209        -3.03455
   C       -4.28202        -2.54613        -4.81231
   C       -3.47894        -1.69470        -5.59027
   C       -4.06831        -0.88486        -6.54898
   C       -5.44669        -0.94474        -6.71590
   C       -6.23575        -1.80013        -5.94099
   C       -5.65071        -2.60906        -4.97623
  Br       -8.10597        -1.86277        -6.19307
  Br       -6.25171         0.16225        -8.01808
   C       -2.08603        -1.86199        -5.18997
   C       -1.00525        -1.31720        -5.82400
   C       -1.10116        -0.45244        -6.93791
   N       -1.12233         0.25569        -7.83964
   C        0.34808        -1.56639        -5.49987
   N        1.46920        -1.73330        -5.32487
   C       -2.05906        -2.78369        -4.05937
   C       -0.98625        -2.99803        -3.25638
   C       -0.86366        -3.91404        -2.17236
   O       -1.69773        -4.97176        -1.98863
   C       -1.23980        -5.59451        -0.89270
   C       -0.09676        -4.86548        -0.43128
   N        0.09354        -3.82766        -1.28828
   C        0.61409        -5.24559         0.69957
   C        0.13145        -6.38044         1.32704
   C       -1.00777        -7.09601         0.83751
   C       -1.73008        -6.73293        -0.27973
   O       -1.20917        -8.14380         1.66148
   C       -0.21540        -8.04149         2.60641
   N        0.57637        -7.02885         2.43972
   C       -0.07906        -8.99454         3.65675
   N       -0.82759       -10.13529         3.80947
   C       -1.96530       -10.56123         3.02929
   C       -3.23416        -9.81189         3.42592
   C       -0.39428       -10.88696         4.91795
   O       -0.90023       -11.94161         5.24987
   C        0.70226       -10.12347         5.46416
   C        0.86723        -8.96005         4.67084
   C        1.96339        -8.18324         5.23112
   O        2.46234        -7.12761         4.93518
   N        2.39026        -8.95844         6.33766
   C        3.51971        -8.54853         7.13901
   C        4.80021        -9.26582         6.72110
   C        1.66422       -10.10994         6.47621
   C        1.91684       -11.07500         7.48451
   C        1.20897       -12.22986         7.58423
   C        1.47296       -13.22832         8.55513
   S        0.52165       -14.69187         8.53685
   C        2.40821       -13.30575         9.57546
   C        3.47286       -12.46967        10.15373
   O        3.86370       -11.36839         9.84842
   N        3.99980       -13.22290        11.19544
   C        5.06656       -12.74802        12.05249
   C        4.51542       -12.01466        13.26969
   C        3.38329       -14.44944        11.36441
   O        3.66042       -15.24983        12.22690
   C        2.37634       -14.52072        10.29089
   C        1.41911       -15.41595         9.85470
   C        1.04094       -16.69981        10.32287
   C        1.75621       -17.63085        11.00483
   C        1.00732       -18.70887        11.72312
   O       -0.15539       -18.99586        11.58219
   C        1.98737       -19.28898        12.66315
   C        3.25318       -18.71833        12.43287
   C        3.16361       -17.79675        11.30343
   C        4.22230       -17.37140        10.55086
   C        4.09231       -16.63685         9.35644
   N        4.03727       -16.04221         8.37624
   C        5.57149       -17.64723        10.86083
   N        6.68422       -17.83349        11.06752
   C        4.32642       -19.07404        13.23103
   C        4.12102       -20.00610        14.24181
   C        2.86606       -20.58439        14.45123
   C        1.78425       -20.22303        13.65859
  Br        2.62112       -21.86001        15.82212
  Br        5.57758       -20.48522        15.34309
   H       -3.49410        -0.20886        -7.16141
   H       -6.24753        -3.27121        -4.36821
   H       -0.08941        -2.40723        -3.38802
   H        1.47058        -4.70570         1.06080
   H       -2.58996        -7.27073        -0.63885
   H       -2.08760       -11.62769         3.23919
   H       -1.75369       -10.42417         1.96715
   H       -3.44107        -9.96169         4.48290
   H       -4.07494       -10.18706         2.84955
   H       -3.12985        -8.74674         3.23546
   H        3.30662        -8.72974         8.19500
   H        3.63060        -7.47324         6.97465
   H        4.71082       -10.33907         6.87010
   H        5.63145        -8.90208         7.31781
   H        5.01146        -9.07203         5.67236
   H        2.71479       -10.87481         8.18416
   H        0.40584       -12.43659         6.88812
   H        5.68955       -12.08025        11.45321
   H        5.64874       -13.61879        12.36311
   H        3.92928       -11.15327        12.95775
   H        5.33639       -11.67193        13.89256
   H        3.88536       -12.67927        13.85637
   H       -0.00064       -16.96379        10.15874
   H        5.30335       -18.63717        13.10165
   H        0.80980       -20.65818        13.81780
*
