# ORCA input file
# SCF done       -183.467748938831          0.000981435985
! CAM-B3LYP def2-SVP def2/J RIJCOSX Grid4 TightSCF
%maxcore 5000
%tddft
    Mode sTDDFT
    Ethresh 5.0
    maxcore 5000
end

%pal
  nprocs 6
  end
* xyz 0 1
   C        2.64557        -7.27796         1.64311
   C        1.74319        -8.12067         2.21342
   S        0.40868        -8.41502         1.15556
   C        1.09234        -7.40619        -0.09750
  Cl        0.27384        -7.12693        -1.55592
   C        2.28122        -6.88333         0.31354
   C        3.32081        -6.00683        -0.23208
   O        3.52498        -5.71604        -1.38868
   C        4.17681        -5.66984         0.94437
   C        3.87318        -6.60302         2.02265
   C        4.53867        -6.78376         3.20172
   C        4.04398        -7.66320         4.18769
   N        3.63036        -8.36154         4.99839
   C        5.75329        -6.15985         3.55291
   N        6.75241        -5.69897         3.87799
   C        4.97845        -4.58240         1.05073
   C        5.01539        -3.44582         0.19273
   S        6.50138        -2.52469         0.17057
   C        5.79528        -1.34613        -0.86633
   C        6.22998        -0.13728        -1.42533
   C        5.23208         0.48160        -2.13150
   C        5.37865         1.77218        -2.83246
   O        6.41765         2.37220        -2.83308
   O        4.29689         2.24191        -3.46960
   S        3.73331        -0.42804        -2.11737
   C        4.46923        -1.66731        -1.16788
   C        4.00722        -2.86244        -0.57519
   C        2.63293        -3.31237        -0.60763
   N        1.85240        -3.35552        -1.72641
   C        2.28189        -3.18961        -3.09911
   C        2.07086        -4.45935        -3.91795
   C        0.53013        -3.77038        -1.41776
   O       -0.35909        -3.86931        -2.23473
   C        0.55325        -3.98470         0.00787
   C        1.86288        -3.70301         0.47816
   C        1.85921        -3.89635         1.90793
   O        2.73636        -3.79870         2.74439
   N        0.54050        -4.28756         2.21436
   C        0.13613        -4.39786         3.59737
   C        0.27311        -5.81402         4.14976
   C       -0.24569        -4.35840         1.08123
   C       -1.59978        -4.75061         0.92689
   C       -2.43885        -5.32567         1.82331
   C       -3.78261        -5.68103         1.52711
   S       -4.77351        -6.38702         2.77244
   C       -6.15240        -6.48033         1.72555
   C       -5.82494        -5.98838         0.45580
   C       -4.49995        -5.54404         0.35445
   C       -6.69876        -5.93708        -0.64519
   N       -7.36777        -5.89690        -1.57642
   C       -7.38132        -6.95895         2.23867
   C       -8.55601        -6.96567         1.55749
   C       -9.78210        -7.37953         2.12746
   C      -11.01713        -7.14513         1.60413
   C      -12.19392        -7.93995         2.07356
   O      -12.24228        -8.63850         3.05715
   C      -13.21681        -7.70991         1.04608
   C      -14.47191        -8.15962         0.76367
   S      -15.07784        -7.41009        -0.69482
   C      -13.63173        -6.48934        -0.89935
   C      -12.73885        -6.75131         0.09118
   C      -11.42303        -6.29419         0.50057
   C      -10.82098        -5.15012         0.04656
   C      -11.37942        -4.40464        -1.01412
   N      -11.82510        -3.79733        -1.87900
   C       -9.69937        -4.53237         0.63539
   N       -8.82522        -3.95621         1.10649
  Cl      -15.40190        -9.27772         1.63199
   H        1.76010        -8.58571         3.17912
   H        5.63580        -4.51149         1.90858
   H        7.21347         0.28134        -1.32151
   H        3.52035         1.67112        -3.39390
   H        3.34235        -2.94005        -3.09929
   H        1.71117        -2.36430        -3.53840
   H        2.59934        -5.28679        -3.45285
   H        2.45989        -4.30707        -4.92081
   H        1.01331        -4.69652        -3.98487
   H       -0.88610        -4.02627         3.69645
   H        0.80387        -3.73920         4.16171
   H       -0.27677        -6.53362         3.54715
   H       -0.10502        -5.84513         5.16784
   H        1.32017        -6.10448         4.16504
   H       -1.95616        -4.57837        -0.08019
   H       -2.11711        -5.55538         2.82672
   H       -4.09318        -5.13439        -0.55249
   H       -7.37048        -7.27549         3.27415
   H       -8.56982        -6.63929         0.52915
   H       -9.75217        -7.98088         3.02950
   H      -13.54099        -5.82997        -1.73961
*
