# ORCA input file
# SCF done       -192.220839755704          0.000449651605
! CAM-B3LYP def2-SVP def2/J RIJCOSX Grid4 TightSCF
%maxcore 5000
%tddft
    Mode sTDDFT
    Ethresh 5.0
    maxcore 5000
end

%pal
  nprocs 6
  end
* xyz 0 1
   C       -3.64303        -5.11685         4.68610
   C       -4.90232        -5.04799         5.19646
   S       -5.34164        -6.52431         5.97461
   C       -3.79710        -7.25533         5.60465
  Cl       -3.43111        -8.83822         6.08327
   C       -3.00827        -6.37937         4.92036
   C       -1.66601        -6.38305         4.32979
   O       -0.88226        -7.30211         4.27642
   C       -1.51516        -5.02335         3.72330
   C       -2.73085        -4.25798         3.95835
   C       -2.98523        -2.95509         3.62275
   C       -4.22081        -2.34748         3.93205
   N       -5.22166        -1.84143         4.17304
   C       -2.08754        -2.08098         2.97732
   N       -1.39875        -1.31459         2.47153
   C       -0.46926        -4.63959         2.94052
   C        0.76950        -5.31817         2.77282
   C        1.53108        -5.27607         1.62469
   C        2.67470        -6.11482         1.79196
   C        2.61100        -6.61199         3.17366
   C        1.47659        -6.13359         3.75068
   C        3.59936        -7.36686         3.81305
   N        4.43317        -7.95792         4.33822
   C        3.62934        -6.43026         0.85218
   C        4.67896        -7.38080         0.97768
   C        5.39845        -7.42867        -0.19758
   C        4.80412        -6.45450        -1.11110
   C        3.74624        -5.86401        -0.50521
   C        2.93572        -4.87790        -1.08019
   N        2.28981        -4.07299        -1.58352
   C        6.48789        -8.24604        -0.58804
   S        7.13333        -8.02900        -2.19219
   C        8.26566        -9.32302        -1.98045
   C        8.13916        -9.89126        -0.71357
   C        7.16196        -9.27335         0.07423
   C        6.83853        -9.76051         1.45895
   C        5.52468       -10.50734         1.41137
   O        4.83054       -10.64689         0.44702
   C        5.07273       -11.16282         2.75390
   F        5.58748       -10.58547         3.84019
   F        3.74718       -11.14324         2.86939
   F        5.46208       -12.45175         2.77812
   C        7.97873       -10.63710         2.00570
   C        8.35403       -11.70344         0.98502
   C        8.97153       -11.04235        -0.24334
   C        9.15615        -9.71114        -3.01012
   C        9.21735        -9.11313        -4.22619
   C       10.07624        -9.50821        -5.28365
   S       10.05540        -8.63106        -6.78632
   C       11.25387        -9.66723        -7.49378
   C       11.64098       -10.65097        -6.57494
   C       10.97942       -10.55269        -5.34400
   C       12.57734       -11.67223        -6.81525
   N       13.31487       -12.53934        -6.96000
   C       11.69765        -9.41884        -8.81369
   C       12.66591       -10.12577        -9.45257
   C       13.11011        -9.82860       -10.76093
   C       14.22278       -10.34137       -11.35628
   C       14.37208       -10.27997       -12.84316
   O       13.72039        -9.60553       -13.60342
   C       15.42934       -11.25465       -13.13908
   C       16.01942       -11.78736       -14.24600
   S       17.24494       -12.94722       -13.78897
   C       16.95102       -12.69176       -12.10691
   C       15.96655       -11.77491       -11.91448
   C       15.31359       -11.11753       -10.79671
   C       15.79703       -11.09727        -9.51469
   C       16.90762       -11.88450        -9.14210
   N       17.80718       -12.52422        -8.83080
   C       15.35030       -10.23718        -8.49148
   N       15.06288        -9.51806        -7.64413
  Cl       15.69278       -11.44488       -15.87229
   H       -5.60528        -4.23926         5.16793
   H       -0.58121        -3.74526         2.33834
   H        1.27432        -4.76017         0.71961
   H        1.17653        -6.28268         4.76908
   H        4.82478        -7.96852         1.85884
   H        5.16093        -6.25725        -2.10530
   H        6.69926        -8.91848         2.14790
   H        7.69522       -11.09353         2.95195
   H        8.84102        -9.99486         2.19558
   H        9.06705       -12.40321         1.42142
   H        7.46471       -12.26760         0.69616
   H        9.07908       -11.77566        -1.04448
   H        9.97301       -10.67428         0.00407
   H        9.81286       -10.53912        -2.78720
   H        8.56558        -8.27328        -4.42954
   H       11.16345       -11.23333        -4.53245
   H       11.24868        -8.56903        -9.31222
   H       13.11822       -10.96768        -8.95170
   H       12.48985        -9.18945       -11.37974
   H       17.51831       -13.24231       -11.38298
*
