# ORCA input file
# SCF done       -174.671378855412          0.000799336358
! CAM-B3LYP def2-SVP def2/J RIJCOSX Grid4 TightSCF
%maxcore 5000
%tddft
    Mode sTDDFT
    Ethresh 5.0
    maxcore 5000
end

%pal
  nprocs 6
  end
* xyz 0 1
   C        0.50694         0.40306        -0.95162
   C        0.67914         0.71083        -2.27642
   C        0.99825        -0.23951        -3.26950
   N        1.25007        -0.96030        -4.12698
   C        0.60862         2.00125        -2.84236
   N        0.58752         3.01838        -3.37617
   C        0.67902        -0.92181        -0.36921
   C        0.60114        -0.80306         1.04654
   C        0.73103        -1.88237         1.87197
   C        0.93996        -3.15962         1.30581
   C        1.00998        -3.28969        -0.11138
   C        0.87850        -2.15137        -0.93962
   C        1.21064        -4.57019        -0.66598
   C        1.33682        -5.66974         0.13863
   C        1.26860        -5.54014         1.53382
   C        1.07511        -4.31162         2.10506
   C        0.35917         0.60219         1.41351
   O        0.29417         1.03862         2.54394
   C        0.19836         1.32922         0.12885
   C       -0.29263         2.58765        -0.07739
   C       -0.65399         3.60694         0.83001
   S       -1.49330         4.99366         0.14678
   C       -1.62314         5.75589         1.69082
   C       -1.01313         4.96605         2.67511
   C       -0.47421         3.77006         2.19006
   C       -0.96786         5.36368         4.02320
   N       -0.93950         5.70337         5.11843
   C       -2.28766         6.98669         1.92258
   C       -2.89739         7.70244         0.95001
   C       -3.65708         8.91261         1.08098
   C       -3.89527         9.59610         2.30061
   O       -3.30636         9.11014         3.41824
   C       -3.49891         9.76218         4.65376
   C       -4.71472        10.71271         2.30128
   C       -5.30903        11.21068         1.13999
   C       -5.02873        10.56241        -0.08295
   C       -4.22882         9.43839        -0.08561
   O       -5.59616        11.10580        -1.19206
   C       -5.36167        10.52125        -2.45139
   C       -6.19989        12.34213         1.19227
   S       -6.87357        13.03031        -0.25264
   C       -7.76940        14.19606         0.65040
   C       -8.53741        15.26393        -0.01797
   O       -8.67468        16.36162         0.45459
   O       -9.04549        14.95589        -1.21823
   C       -7.56055        14.05695         2.01117
   C       -6.65394        13.01671         2.30021
   C       -8.18828        14.84677         3.04495
   C       -9.48485        15.22057         3.07213
   C      -10.11593        16.10629         4.04514
   C       -9.54787        16.61543         5.18070
   C      -10.21257        17.47631         6.08119
   N      -10.69274        18.17398         6.85564
   C       -8.24737        16.32850         5.64723
   N       -7.21285        16.12831         6.10401
   C      -11.48111        16.34711         3.59896
   C      -11.73546        15.55072         2.44570
   C      -10.53211        14.78580         2.09956
   O      -10.43412        13.93676         1.23856
   C      -12.94257        15.56746         1.80681
   C      -13.96923        16.40360         2.29674
   C      -13.72326        17.20618         3.44873
   C      -12.46544        17.16468         4.09131
   C      -14.75585        18.03770         3.92928
   C      -15.97177        18.07679         3.30332
   C      -16.21222        17.28713         2.16854
   C      -15.23251        16.46859         1.67609
   H        0.67124        -1.76278         2.94360
   H        0.93052        -2.28512        -2.00834
   H        1.26384        -4.66490        -1.74064
   H        1.49007        -6.64619        -0.29591
   H        1.36973        -6.41844         2.15364
   H        1.02148        -4.20535         3.17869
   H       -0.48233         2.86046        -1.10938
   H        0.02157         3.04389         2.80823
   H       -2.29942         7.31963         2.94816
   H       -2.83872         7.31357        -0.06155
   H       -2.91438         9.19062         5.37314
   H       -4.55077         9.75170         4.95411
   H       -3.13173        10.79213         4.62588
   H       -4.90967        11.22391         3.22765
   H       -4.02976         8.92425        -1.01246
   H       -5.89783        11.14402        -3.16533
   H       -5.75102         9.49986        -2.49639
   H       -4.29631        10.52184        -2.69902
   H       -8.95819        14.01527        -1.42426
   H       -6.38755        12.76418         3.31030
   H       -7.53197        15.12947         3.85783
   H      -13.10724        14.95464         0.93305
   H      -12.31082        17.78775         4.95782
   H      -14.56621        18.64393         4.80286
   H      -16.75580        18.71726         3.67860
   H      -17.17753        17.33140         1.68677
   H      -15.41130        15.85883         0.80259
*
