# ORCA input file
# SCF done       -188.914934705380          0.000388498324
! CAM-B3LYP def2-SVP def2/J RIJCOSX Grid4 TightSCF
%maxcore 5000
%tddft
    Mode sTDDFT
    Ethresh 5.0
    maxcore 5000
end

%pal
  nprocs 6
  end
* xyz 0 1
   C       -2.44506         5.41629        -1.21716
   C       -1.10403         5.50315        -1.47414
   C       -0.56327         5.68126        -2.76484
   N       -0.07645         5.87380        -3.78622
   C       -0.11211         5.37523        -0.47917
   N        0.72107         5.24606         0.29960
   C       -3.49363         5.26201        -2.21693
   C       -4.64507         4.70111        -1.58707
   C       -5.77242         4.39566        -2.29542
   C       -5.80401         4.65064        -3.68437
   C       -4.66347         5.22822        -4.31639
   C       -3.50781         5.52863        -3.55999
   C       -4.71149         5.48211        -5.70228
   C       -5.82881         5.17764        -6.43136
   C       -6.94965         4.60757        -5.80890
   C       -6.93765         4.34940        -4.46484
   C       -4.39008         4.54494        -0.14771
   O       -5.09679         4.05517         0.69813
   C       -3.05779         5.20103         0.08152
   C       -2.72922         5.58501         1.33543
   C       -1.71369         6.51062         1.75749
   C       -1.27274         6.56638         3.04307
   C       -0.23988         7.48112         3.41845
   C        0.22409         7.57189         4.71947
   C        1.23269         8.48124         5.08001
   N        2.05397         9.23153         5.36512
   C       -0.29696         6.77413         5.75171
   N       -0.73013         6.12369         6.59311
   C        0.29024         8.28690         2.36378
   C       -0.21833         8.18986         1.10761
   O       -1.24703         7.35425         0.80121
   C        0.26779         8.90619        -0.03478
   S       -0.51317         8.66997        -1.56852
   C        0.64367         9.67630        -2.38157
   C        1.56585        10.18984        -1.46455
   C        1.34674         9.75038        -0.14783
   C        2.61934        11.07026        -1.77102
   N        3.48231        11.80107        -1.96165
   C        0.54757         9.81802        -3.78754
   C        1.43964        10.47255        -4.57577
   C        1.34916        10.56232        -5.98753
   C        2.28689        11.15056        -6.80936
   C        1.86795        11.03413        -8.16561
   C        0.56988        10.33096        -8.12838
   C        0.27747        10.04984        -6.83298
   C       -0.23857         9.99180        -9.21926
   N       -0.93365         9.69681       -10.08500
   C        2.53418        11.45897        -9.29139
   C        2.11709        11.34775       -10.64943
   C        3.09365        11.87019       -11.47222
   C        4.18393        12.34273       -10.62304
   C        3.85925        12.11034        -9.32688
   C        4.66874        12.43503        -8.23088
   N        5.35920        12.71708        -7.35783
   C        3.05144        11.93285       -12.88580
   C        4.06972        12.40087       -13.66077
   C        3.99010        12.43857       -15.07059
   C        5.00338        12.85928       -15.88625
   C        4.98994        12.92029       -17.33688
   C        3.91564        12.69609       -18.15924
   C        3.96500        12.78794       -19.56659
   N        3.93499        12.84282       -20.71279
   C        2.61106        12.36474       -17.73710
   N        1.52398        12.10201       -17.47612
   C        6.32722        13.29968       -17.77944
   C        7.14074        13.52454       -16.63219
   C        6.35129        13.28578       -15.41471
   O        6.73299        13.40746       -14.26930
   C        8.45102        13.89442       -16.73513
   C        9.02215        14.05580       -18.01671
   C        8.21693        13.82969       -19.17063
   C        6.86198        13.45043       -19.03199
   C        8.79786        13.98981       -20.44513
   C       10.11029        14.35483       -20.57522
   C       10.90191        14.57685       -19.43837
   C       10.36931        14.43106       -18.18611
   H       -6.62938         3.96256        -1.80152
   H       -2.66051         5.97080        -4.06062
   H       -3.84542         5.91637        -6.17960
   H       -5.85426         5.37386        -7.49250
   H       -7.82244         4.37391        -6.39955
   H       -7.79716         3.91032        -3.98029
   H       -3.35362         5.18906         2.12823
   H       -1.68040         5.89376         3.78075
   H        1.10222         8.96294         2.57172
   H        1.97556        10.03908         0.67474
   H       -0.29840         9.31688        -4.23797
   H        2.29996        10.95104        -4.12936
   H        3.19498        11.61898        -6.48419
   H       -0.60022         9.53754        -6.48627
   H        1.18830        10.91900       -10.97209
   H        5.08937        12.80191       -10.97225
   H        2.14547        11.57220       -13.35862
   H        4.98303        12.75293       -13.20635
   H        3.06327        12.09712       -15.51404
   H        9.04455        14.05901       -15.84805
   H        6.28227        13.28414       -19.92587
   H        8.18468        13.81831       -21.31762
   H       10.54610        14.47441       -21.55572
   H       11.93570        14.86367       -19.55976
   H       10.97357        14.60047       -17.30695
*
