# ORCA input file
# SCF done       -179.258786902107          0.000405132954
! CAM-B3LYP def2-SVP def2/J RIJCOSX Grid4 TightSCF
%maxcore 5000
%tddft
    Mode sTDDFT
    Ethresh 5.0
    maxcore 5000
end

%pal
  nprocs 6
  end
* xyz 0 1
   C        4.61088         4.04280        -0.14411
   C        4.96388         3.17779        -1.14728
   C        6.21000         2.51951        -1.22001
   N        7.20098         1.95305        -1.34200
   C        4.15356         2.80424        -2.23943
   N        3.55679         2.44763        -3.15406
   C        5.45239         4.40164         0.99320
   C        4.72029         5.28141         1.84146
   C        5.25086         5.79016         2.99168
   C        6.56996         5.43772         3.35394
   C        7.31171         4.55999         2.51157
   C        6.73260         4.04720         1.32750
   C        8.62809         4.21720         2.88095
   C        9.18651         4.71689         4.02621
   C        8.45511         5.58095         4.85448
   C        7.17404         5.93349         4.52578
   C        3.39086         5.51180         1.26335
   O        2.50448         6.20317         1.73469
   C        3.34997         4.75001         0.00506
   C        2.31222         4.74583        -0.88624
   C        1.06667         5.40036        -0.82856
   S        0.44752         6.39943         0.46215
   C       -1.03363         6.67549        -0.38934
   C       -1.03886         6.01882        -1.63142
   C        0.13834         5.30741        -1.86001
   C       -2.08753         6.04661        -2.56507
   N       -2.92964         6.05388        -3.34584
   C       -2.01990         7.48899         0.22259
   C       -3.21277         7.83859        -0.31670
   C       -4.17760         8.65256         0.33550
   N       -5.35334         8.99557        -0.28366
   C       -6.11579         9.76971         0.52112
   C       -7.39883        10.28802         0.14894
   C       -8.01064        10.08613        -1.01995
   C       -5.40464         9.94048         1.73499
   C       -4.19377         9.23310         1.59363
   C       -5.84905        10.68061         2.86796
   C       -5.15255        10.79584         4.02705
   C       -5.57854        11.51575         5.16987
   C       -4.88676        11.61411         6.35933
   C       -5.62671        12.40165         7.27777
   C       -6.85637        12.81126         6.56137
   C       -6.81496        12.27835         5.31518
   C       -7.88993        13.61855         7.04843
   N       -8.75923        14.28058         7.40372
   C       -5.29229        12.72456         8.57372
   C       -6.04691        13.50716         9.49856
   C       -5.33394        13.63505        10.67218
   C       -4.10500        12.86943        10.53330
   C       -4.07265        12.32247         9.28800
   C       -3.05072        11.49792         8.80579
   N       -2.20178        10.81680         8.43708
   C       -5.77580        14.35139        11.81725
   C       -4.99029        14.95827        12.75080
   C       -5.43581        15.56804        13.99109
   C       -6.66025        15.39889        14.58305
   C       -7.03504        15.99488        15.80536
   N       -7.39936        16.45466        16.79217
   C       -7.69641        14.58322        14.08110
   N       -8.57421        13.92113        13.75020
   C       -4.31727        16.31904        14.54727
   C       -3.18547        16.14139        13.70141
   C       -3.55115        15.28915        12.55767
   O       -2.84363        14.99566        11.61840
   C       -1.98107        16.72329        13.97396
   C       -1.84928        17.52324        15.13079
   C       -2.97794        17.71073        15.98016
   C       -4.21354        17.09794        15.66963
   C       -2.83593        18.51455        17.12962
   C       -1.63769        19.10407        17.42794
   C       -0.52712        18.91836        16.59106
   C       -0.63054        18.14448        15.46712
   H        4.67194         6.45451         3.61590
   H        7.32307         3.38687         0.71279
   H        9.18754         3.55128         2.24050
   H       10.19584         4.44865         4.29997
   H        8.91137         5.96604         5.75406
   H        6.60553         6.59830         5.15945
   H        2.44086         4.16616        -1.79239
   H        0.31996         4.73532        -2.75387
   H       -1.76130         7.84942         1.20872
   H       -3.47460         7.49210        -1.30663
   H       -5.60626         8.70474        -1.21432
   H       -7.88829        10.89126         0.89986
   H       -7.58323         9.49609        -1.81315
   H       -8.97665        10.51275        -1.22154
   H       -3.41848         9.15320         2.32707
   H       -6.80895        11.16890         2.77910
   H       -4.19432        10.30448         4.12223
   H       -3.93800        11.16113         6.56907
   H       -7.56594        12.40067         4.55707
   H       -6.99718        13.95959         9.29003
   H       -3.37360        12.72445        11.30373
   H       -6.85204        14.43628        11.91362
   H       -1.13842        16.57261        13.31546
   H       -5.05088        17.26548        16.32828
   H       -3.69344        18.65382        17.77145
   H       -1.53887        19.71721        18.31113
   H        0.41055        19.39172        16.84124
   H        0.22083        17.99787        14.81860
*
