# ORCA input file
# SCF done       -207.974654252700          0.000240307899
! CAM-B3LYP def2-SVP def2/J RIJCOSX Grid4 TightSCF
%maxcore 5000
%tddft
    Mode sTDDFT
    Ethresh 5.0
    maxcore 5000
end

%pal
  nprocs 6
  end
* xyz 0 1
   C       -5.14667        -0.07636        -0.80631
   C       -5.43435         0.24169         0.61318
   O       -5.74800        -0.50813         1.51135
   C       -5.25880         1.70324         0.73750
   C       -4.89199         2.24688        -0.50433
   C       -4.81274         1.16914        -1.48591
   C       -4.47666         1.33903        -2.80387
   C       -4.16148         2.58752        -3.38448
   N       -3.89343         3.56207        -3.92817
   C       -4.38463         0.33396        -3.79078
   N       -4.28254        -0.40793        -4.66205
   C       -4.67593         3.61484        -0.60750
   C       -4.82913         4.40381         0.52151
   C       -5.19312         3.84513         1.74294
   C       -5.41425         2.47855         1.86784
  Cl       -5.37125         4.86463         3.11800
   C       -5.16569        -1.29710        -1.42529
   C       -5.44640        -2.59255        -0.94880
   C       -5.81528        -3.09341         0.29604
   C       -5.96711        -4.47113         0.28145
   C       -5.71468        -5.04809        -0.98829
   S       -5.29859        -3.88565        -2.15326
   C       -5.87404        -6.44790        -0.89398
   C       -6.22649        -6.76375         0.43650
   C       -6.30538        -5.53553         1.21277
   C       -6.63340        -5.42343         2.53095
   C       -6.94290        -6.55329         3.31973
   N       -7.19582        -7.46462         3.96781
   C       -6.69867        -4.18883         3.21419
   N       -6.76645        -3.20740         3.80178
   C       -6.38742        -8.12599         0.63867
   C       -6.16396        -8.85621        -0.52450
   S       -5.75663        -7.83373        -1.88970
   C       -6.22342       -10.26891        -0.65999
   C       -5.99967       -10.90511        -1.90075
   C       -6.03144       -12.32936        -2.05359
   N       -5.81062       -12.86645        -3.26971
   C       -5.57234       -12.09459        -4.28012
   C       -5.53801       -10.68274        -4.12819
   N       -5.74609       -10.13274        -2.97599
   F       -5.29366        -9.88846        -5.16320
   F       -5.36336       -12.66176        -5.46209
   C       -6.28037       -13.20452        -0.97312
   C       -6.52058       -12.57478         0.27187
   C       -6.49473       -11.13731         0.42471
   N       -6.74580       -10.77858         1.68490
   S       -6.98879       -12.08457         2.57822
   N       -6.79075       -13.18143         1.42902
   C       -6.27233       -14.61471        -1.13903
   C       -6.46863       -15.56807        -0.14469
   C       -6.38029       -16.86023        -0.63940
   C       -6.11627       -16.89812        -2.02688
   S       -5.97539       -15.33820        -2.70968
   C       -6.03287       -18.25236        -2.42522
   C       -6.24412       -19.07047        -1.29295
   C       -6.45961       -18.22092        -0.13483
   C       -6.65331       -18.62633         1.15306
   C       -6.67002       -19.99538         1.49420
   N       -6.68222       -21.11288         1.75112
   C       -6.84373       -17.71288         2.21138
   N       -7.00677       -16.97401         3.07260
   C       -6.14727       -20.42433        -1.57729
   C       -5.85810       -20.66007        -2.91538
   S       -5.74374       -19.16244        -3.83300
   C       -5.70179       -21.89304        -3.58457
   C       -5.44075       -23.12373        -3.06256
   C       -5.73669       -24.32714        -3.89248
   O       -5.98542       -24.34405        -5.07410
   C       -5.71178       -25.46212        -2.94555
   C       -5.30236       -25.00605        -1.67865
   C       -4.98145       -23.58344        -1.76732
   C       -4.16627       -22.91078        -0.89530
   C       -3.64494       -23.47544         0.28877
   N       -3.19048       -23.88459         1.25924
   C       -3.66772       -21.61285        -1.12123
   N       -3.21429       -20.56939        -1.27514
   C       -5.24264       -25.89445        -0.61531
   C       -5.57715       -27.22136        -0.83618
   C       -5.96055       -27.66097        -2.09955
   C       -6.03755       -26.78296        -3.17538
  Cl       -6.35167       -29.32110        -2.33201
   H       -4.39335         4.07627        -1.53899
   H       -4.66433         5.46780         0.45587
   H       -5.69685         2.02971         2.80695
   H       -4.91408        -1.29235        -2.47920
   H       -5.95434        -2.45788         1.15279
   H       -6.64832        -8.60107         1.56611
   H       -6.66072       -15.29476         0.87646
   H       -6.31825       -21.21317        -0.86764
   H       -5.87197       -21.88144        -4.65710
   H       -4.95724       -25.57220         0.37296
   H       -5.54023       -27.92599        -0.02033
   H       -6.33886       -27.11436        -4.15641
*
