# ORCA input file
# SCF done       -227.093308801486          0.000337232051
! CAM-B3LYP def2-SVP def2/J RIJCOSX Grid4 TightSCF
%maxcore 5000
%tddft
    Mode sTDDFT
    Ethresh 5.0
    maxcore 5000
end

%pal
  nprocs 6
  end
* xyz 0 1
   C       -1.82317         7.89932         1.54296
   C       -2.98445         8.55965         1.94818
   N       -3.93618         9.10623         2.28202
   C       -1.72954         6.79441         0.72161
   F       -2.78619         6.18720         0.18636
   C       -0.40642         6.37615         0.50790
   F       -0.07775         5.32833        -0.25237
   C        0.52904         7.15552         1.16255
   S       -0.24939         8.42665         2.05807
   C        1.90559         7.00987         1.14939
   C        3.11138         6.87120         1.11876
   C        4.49040         6.75237         1.10350
   C        5.24571         5.84067         0.41768
   C        6.63516         6.00904         0.60711
   C        7.68245         5.23329         0.05992
   C        7.42983         4.03920        -0.71667
   C        6.50600         3.05510        -0.48944
   C        6.59220         1.98871        -1.40488
   C        7.56967         2.15239        -2.33957
   S        8.41417         3.64395        -2.10078
   C        7.96693         1.24542        -3.44534
   C        8.97344         5.66203         0.33486
   C        9.26881         6.76899         1.17022
   C        8.22412         7.51181         1.76996
   C        6.93019         7.11710         1.44275
   S        5.47199         7.87963         2.02243
   C        8.47229         8.60285         2.68442
   C        7.77378         9.77266         2.82019
   C        8.25785        10.59709         3.85249
   C        9.31520        10.06262         4.52443
   S        9.74820         8.51814         3.87239
   C       10.07135        10.63651         5.66738
   C       10.65620         6.99008         1.26477
   C       11.40955         6.07856         0.56193
   S       10.42632         4.89908        -0.26121
   C       12.82719         6.04158         0.44835
   C       13.45465         5.04479        -0.33055
   C       14.88461         4.95898        -0.51540
   N       15.37912         3.96961        -1.27220
   C       14.57044         3.10704        -1.84292
   C       13.15365         3.19939        -1.67042
   N       12.65414         4.15168        -0.92123
   C       12.27024         2.28518        -2.29271
   N       11.57422         1.53751        -2.81223
   C       15.13586         2.07960        -2.63504
   N       15.57491         1.24478        -3.28655
   C       15.75496         5.89797         0.08911
   C       15.12587         6.88264         0.88341
   C       13.69564         6.96497         1.06756
   N       13.36125         7.98504         1.85854
   S       14.69281         8.75523         2.32313
   N       15.76416         7.84460         1.54809
   C       17.17125         5.89557        -0.06461
   C       17.94069         5.02578        -0.80027
   C       19.32008         5.29007        -0.74216
   C       20.35601         4.60111        -1.41731
   C       20.11381         3.40442        -2.18657
   C       20.72639         2.99919        -3.34423
   C       20.27230         1.75341        -3.81035
   C       19.32675         1.18164        -3.01089
   S       18.96481         2.19777        -1.65922
   C       18.61706        -0.10790        -3.18813
   C       21.63232         5.13966        -1.27951
   C       21.91801         6.28757        -0.49627
   C       20.88069         6.96248         0.18858
   C       19.60465         6.43275         0.04932
   S       18.14801         7.10549         0.73715
   C       21.10775         8.15358         0.97886
   C       20.50460         8.50864         2.15361
   C       20.90887         9.77001         2.63157
   C       21.80658        10.39666         1.82316
   S       22.18528         9.41796         0.44474
   C       22.44110        11.72876         1.99682
   C       23.30054         6.57544        -0.46835
   C       24.05274         5.70401        -1.20788
   S       23.08118         4.46624        -1.97850
   C       25.42522         5.73528        -1.38769
   C       26.62684         5.76218        -1.55816
   C       27.99830         5.82737        -1.73647
   C       28.87273         6.73054        -1.16104
   C       30.20849         6.53839        -1.54775
   C       30.37271         5.48570        -2.42469
   S       28.85062         4.72274        -2.77333
   C       31.56452         5.03748        -2.99718
   N       32.54207         4.66710        -3.46949
   F       31.21394         7.29488        -1.11324
   F       28.47932         7.69028        -0.31937
   H        4.81242         5.09273        -0.22060
   H        5.82301         3.06632         0.34158
   H        5.95442         1.12345        -1.36457
   H        7.41128         0.31296        -3.38281
   H        9.03412         1.03236        -3.39155
   H        7.76931         1.70793        -4.41247
   H        6.96433        10.05745         2.17274
   H        7.83308        11.55609         4.09024
   H        9.67044        11.61378         5.92496
   H       11.12654        10.74264         5.41664
   H       10.00117         9.98708         6.53984
   H       11.11467         7.79350         1.81013
   H       17.49965         4.23819        -1.37892
   H       21.44689         3.59681        -3.87318
   H       20.63514         1.29202        -4.71142
   H       19.01122        -0.63567        -4.05284
   H       17.55066         0.06908        -3.33533
   H       18.72986        -0.73628        -2.30522
   H       19.81858         7.87048         2.67980
   H       20.54322        10.19934         3.54738
   H       22.11356        12.17672         2.93187
   H       22.17210        12.39338         1.17576
   H       23.52708        11.64016         2.00936
   H       23.74269         7.38482         0.08218
*
