# ORCA input file
# SCF done       -174.968167805214          0.000290942134
! CAM-B3LYP def2-SVP def2/J RIJCOSX Grid4 TightSCF
%maxcore 5000
%tddft
    Mode sTDDFT
    Ethresh 5.0
    maxcore 5000
end

%pal
  nprocs 6
  end
* xyz 0 1
   C        7.23945        -1.16284        -4.22546
   C        6.18540        -1.00783        -3.37196
   C        6.10975         0.34234        -2.86758
   C        5.25165         0.89823        -1.92256
   C        5.39282         2.23628        -1.58067
   C        6.38690         3.03824        -2.16453
   C        7.26194         2.49487        -3.07604
   C        7.12501         1.15466        -3.41367
   S        8.15300         0.26612        -4.49879
   C        4.52886         2.80479        -0.61459
   N        3.83891         3.27027         0.17282
   C        5.28152        -2.07958        -3.05044
   C        3.94917        -2.00999        -2.70794
   C        3.39375        -3.27614        -2.49891
   C        4.31602        -4.31837        -2.69352
   S        5.86126        -3.73780        -3.12943
   C        3.66491        -5.55680        -2.47614
   C        2.32214        -5.29125        -2.13345
   C        2.10922        -3.85188        -2.13937
   C        0.95000        -3.18519        -1.87019
   C        0.87697        -1.77697        -1.91596
   N        0.82859        -0.63212        -1.95798
   C       -0.24561        -3.85611        -1.53672
   N       -1.22220        -4.39355        -1.26847
   C        1.58787        -6.44440        -1.90170
   C        2.35484        -7.59217        -2.07172
   S        4.01533        -7.22919        -2.52158
   C        1.91976        -8.93386        -1.94097
   C        2.79441       -10.01276        -2.20212
   C        2.36582       -11.38668        -2.13359
   N        3.23633       -12.36303        -2.40935
   C        4.47293       -12.06889        -2.73423
   C        4.90002       -10.70361        -2.79764
   N        4.05789        -9.73217        -2.53498
   C        6.23532       -10.38395        -3.14466
   N        7.32077       -10.15302        -3.42837
   C        5.37932       -13.11901        -3.02013
   N        6.13246       -13.94905        -3.25630
   C        1.04530       -11.75114        -1.78859
   C        0.17602       -10.67480        -1.48817
   C        0.60293        -9.29565        -1.56703
   N       -0.38704        -8.46080        -1.25093
   S       -1.70465        -9.30057        -0.89325
   N       -1.10166       -10.76860        -1.11990
   C        0.64164       -13.10953        -1.77704
   C       -0.61505       -13.60547        -1.44734
   C       -0.68053       -14.98407        -1.58417
   C        0.53536       -15.54851        -2.02470
   S        1.76165       -14.37846        -2.25099
   C        0.34909       -16.94448        -2.15888
   C       -0.97413       -17.26688        -1.80380
   C       -1.66324       -16.04490        -1.42388
   C       -2.95621       -15.91751        -1.00936
   C       -3.51791       -14.66866        -0.66791
   N       -3.98415       -13.65913        -0.38860
   C       -3.81920       -17.02792        -0.89447
   N       -4.52225       -17.92884        -0.80125
   C       -1.25361       -18.62774        -1.93095
   C       -0.15931       -19.33932        -2.38221
   S        1.24349       -18.31478        -2.64646
   C       -0.08488       -20.73494        -2.65053
   C        0.97938       -21.44142        -3.13444
   C        0.70340       -22.82176        -3.30375
   C        1.54106       -23.83094        -3.77840
   C        1.05186       -25.12525        -3.86651
   C       -0.26659       -25.43269        -3.48492
   C       -1.10387       -24.44654        -3.01436
   C       -0.61881       -23.14870        -2.92660
   S       -1.48935       -21.75285        -2.37389
   C        1.88856       -26.15843        -4.34990
   N        2.56531       -26.99603        -4.74241
   H        7.52077        -2.06358        -4.73707
   H        4.49408         0.30300        -1.43819
   H        6.46391         4.07625        -1.87971
   H        8.04569         3.08884        -3.51887
   H        3.39531        -1.09121        -2.65793
   H        0.55029        -6.49006        -1.62655
   H       -1.41568       -12.96108        -1.13414
   H       -2.19999       -19.09111        -1.71635
   H        1.92844       -20.99118        -3.36661
   H        2.55446       -23.60427        -4.07362
   H       -0.61365       -26.45135        -3.56668
   H       -2.11677       -24.67160        -2.71997
*
