# ORCA input file
# SCF done       -235.005462270312          0.000967921551
! CAM-B3LYP def2-SVP def2/J RIJCOSX Grid4 TightSCF
%maxcore 5000
%tddft
    Mode sTDDFT
    Ethresh 5.0
    maxcore 5000
end

%pal
  nprocs 6
  end
* xyz 0 1
   C        0.97027        -9.23690       -13.20649
   C        0.39051        -8.34394       -14.06324
   F        0.91943        -8.13322       -15.27618
   C       -0.76614        -7.63372       -13.68420
   F       -1.31255        -6.76273       -14.54405
   C       -1.32694        -7.82614       -12.45279
   C       -0.75079        -8.73667       -11.54589
   C        0.41771        -9.45696       -11.92861
   C        1.01604       -10.37249       -11.03298
   C        0.46435       -10.55903        -9.79261
   C       -0.69888        -9.83170        -9.41671
   C       -1.29905        -8.94232       -10.26019
   C       -1.06592       -10.16706        -8.02532
   O       -1.92625        -9.62757        -7.36475
   C       -0.06026       -11.16799        -7.58209
   C        0.86273       -11.40714        -8.67354
   C        1.89045       -12.31377        -8.68346
   C        2.22951       -13.16787        -7.61246
   N        2.56894       -13.90160        -6.79734
   C        2.74691       -12.52374        -9.78431
   N        3.47874       -12.73174       -10.64388
   C        0.08135       -11.60199        -6.29788
   C       -0.89788       -11.49078        -5.27107
   C       -0.48339       -11.23197        -3.94154
   C       -1.42520       -10.99678        -2.90004
   N       -0.99189       -10.68561        -1.66703
   C        0.28781       -10.59362        -1.42531
   C        1.23348       -10.82854        -2.47190
   N        0.83527       -11.13358        -3.67672
   C        2.70109       -10.76340        -2.22373
   C        0.70894       -10.27337        -0.03294
   C       -2.82638       -11.09132        -3.10947
   C       -3.24149       -11.41265        -4.41822
   C       -2.28421       -11.63167        -5.48024
   N       -2.88660       -11.98318        -6.61755
   S       -4.47466       -11.95693        -6.39247
   N       -4.49476       -11.52909        -4.85657
   C       -3.70593       -10.90154        -2.02115
   C       -5.01676       -11.38926        -1.87430
   C       -5.60118       -11.02324        -0.60967
   N       -6.87296       -11.29877        -0.35956
   C       -7.54009       -12.02196        -1.22901
   C       -8.94890       -12.34937        -0.90749
   O       -9.47876       -12.01942         0.13373
   C       -9.62923       -13.19385        -1.90546
   C       -9.02068       -13.70614        -2.98040
   C       -7.61396       -13.44014        -3.33330
   O       -7.11247       -13.86336        -4.35425
   C       -6.89450       -12.55110        -2.39001
   N       -5.66616       -12.20216        -2.69793
   C       -4.71729       -10.29312         0.20732
   S       -3.20652       -10.04551        -0.59931
   C       -4.98235        -9.73827         1.47520
   C       -4.15754        -8.69789         1.97561
   C       -4.48297        -7.96937         3.15233
   N       -3.65409        -6.99208         3.56947
   C       -2.58290        -6.70924         2.87826
   C       -2.28264        -7.41055         1.67024
   N       -3.06009        -8.38082         1.26886
   C       -1.09648        -7.07972         0.83253
   C       -1.69476        -5.62951         3.39362
   C       -5.68284        -8.21107         3.87676
   C       -6.45093        -9.31562         3.44444
   C       -6.08319       -10.09307         2.28224
   N       -6.88959       -11.13860         2.11179
   S       -8.02395       -11.12409         3.23058
   N       -7.53782        -9.81563         4.03790
   C       -5.96478        -7.40052         5.00391
   C       -7.12682        -7.18670         5.68382
   C       -7.05340        -6.63914         7.06626
   O       -6.08726        -6.15043         7.60552
   C       -8.39317        -6.86956         7.64541
   C       -8.82210        -6.65871         8.92345
   C      -10.15401        -6.98647         9.26327
   C      -11.01448        -7.53346         8.26762
   C      -12.33850        -7.86692         8.61698
   C      -12.78752        -7.66348         9.89166
   C      -11.93637        -7.11991        10.87401
   C      -10.64653        -6.78803        10.56765
   F      -12.40335        -6.93125        12.11676
   F      -14.04752        -7.98101        10.22077
   C      -10.54375        -7.73172         6.94870
   C       -9.25267        -7.39775         6.64000
   C       -8.51066        -7.46001         5.38277
   C       -9.07042        -7.53438         4.13342
   C       -8.34605        -7.31643         2.94542
   N       -7.79534        -7.10845         1.95963
   C      -10.44326        -7.74920         3.90180
   N      -11.55100        -7.93719         3.66570
   H        1.85506        -9.77289       -13.51268
   H       -2.21166        -7.27379       -12.17728
   H        1.90377       -10.89610       -11.34897
   H       -2.17913        -8.40038        -9.94892
   H        1.03060       -12.00908        -5.97192
   H        2.98600        -9.76748        -1.88769
   H        3.23189       -11.00077        -3.14081
   H        2.98595       -11.47371        -1.44927
   H       -0.17405       -10.11875         0.58061
   H        1.33024        -9.37935        -0.01920
   H        1.29547       -11.09310         0.37965
   H      -10.66894       -13.40542        -1.69459
   H       -9.55090       -14.34670        -3.67249
   H       -0.17870        -7.21154         1.40392
   H       -1.14283        -6.04031         0.51137
   H       -1.08283        -7.72718        -0.03936
   H       -2.09987        -5.24451         4.32457
   H       -1.62654        -4.81954         2.66896
   H       -0.68981        -6.01171         3.56590
   H       -5.09311        -6.90461         5.42149
   H       -8.15482        -6.24939         9.66666
   H      -13.00485        -8.28091         7.87648
   H      -10.00673        -6.37318        11.33076
   H      -11.21386        -8.15247         6.21620
*
