# ORCA input file
# SCF done       -234.017521160477          0.000365859410
! CAM-B3LYP def2-SVP def2/J RIJCOSX Grid4 TightSCF
%maxcore 5000
%tddft
    Mode sTDDFT
    Ethresh 5.0
    maxcore 5000
end

%pal
  nprocs 6
  end
* xyz 0 1
   C      -11.86696         0.88191        -2.13212
   C      -11.99755         1.70953        -1.05200
   F      -12.60397         2.89567        -1.18240
   C      -11.49738         1.32787         0.20941
   F      -11.63991         2.15829         1.25024
   C      -10.87176         0.12363         0.37269
   C      -10.72036        -0.74974        -0.72164
   C      -11.22736        -0.36660        -1.99724
   C      -11.08874        -1.22784        -3.11059
   C      -10.45895        -2.43452        -2.95489
   C       -9.95076        -2.80330        -1.67804
   C      -10.07273        -1.99697        -0.58331
   C       -9.31064        -4.12288        -1.77901
   O       -8.77748        -4.73590        -0.86902
   C       -9.43836        -4.54042        -3.17892
   C      -10.16974        -3.51282        -3.89943
   C      -10.54844        -3.52734        -5.21600
   C      -10.30058        -4.56859        -6.13586
   N      -10.14429        -5.37183        -6.94135
   C      -11.26410        -2.48347        -5.84123
   N      -11.84387        -1.67022        -6.40657
   C       -8.92306        -5.69458        -3.71480
   C       -8.19012        -6.72650        -3.10923
   C       -7.70874        -7.82025        -3.84437
   C       -7.00173        -8.71423        -3.06510
   C       -6.94466        -8.30447        -1.71003
   S       -7.74746        -6.83374        -1.40608
   C       -6.20263        -9.26647        -0.99592
   C       -5.78336       -10.28814        -1.87688
   C       -6.26128        -9.96043        -3.21368
   C       -6.03097       -10.64264        -4.36969
   C       -5.22344       -11.80010        -4.43768
   N       -4.54571       -12.71885        -4.53185
   C       -6.55737       -10.20994        -5.60709
   N       -6.98347        -9.86409        -6.61325
   C       -5.05599       -11.28921        -1.24280
   C       -4.90869       -11.02815         0.11611
   S       -5.68683        -9.52850         0.60714
   C       -4.22814       -11.80159         1.07421
   C       -3.61667       -13.05398         0.91073
   C       -3.00333       -13.54140         2.11767
   N       -2.40430       -14.73365         2.15500
   C       -2.40707       -15.43812         1.04552
   C       -1.77504       -16.78464         1.10121
   O       -1.39380       -17.28075         2.13686
   C       -1.67041       -17.47331        -0.19832
   C       -2.22557       -17.01483        -1.32426
   C       -3.00931       -15.76750        -1.40067
   O       -3.61809       -15.43960        -2.39321
   C       -3.00736       -14.95020        -0.15654
   N       -3.59584       -13.77585        -0.21227
   C       -3.14804       -12.66329         3.20217
   S       -4.04943       -11.26510         2.71441
   C       -2.67492       -12.82870         4.51650
   C       -1.81274       -13.81647         4.98375
   C       -1.55095       -13.66401         6.33931
   C       -2.23450       -12.57091         6.91449
   S       -3.17045       -11.70928         5.77852
   C       -1.94229       -12.52584         8.29187
   C       -1.05753       -13.58023         8.60392
   C       -0.76438       -14.31287         7.38195
   C        0.11100       -15.34602         7.23406
   C        0.82875       -15.87622         8.32893
   N        1.41694       -16.30447         9.21451
   C        0.41701       -15.92053         5.97979
   N        0.72053       -16.36860         4.97009
   C       -0.70361       -13.59900         9.94821
   C       -1.34008       -12.60339        10.67633
   S       -2.35117       -11.58631         9.64952
   C       -1.15565       -12.32249        12.04925
   C       -1.93580       -11.57496        12.87793
   C       -1.34381       -10.96780        14.10377
   O       -0.28616       -11.25027        14.61386
   C       -2.29501        -9.90839        14.50177
   C       -2.16595        -8.95887        15.47408
   C       -3.20126        -8.01346        15.65271
   C       -4.35413        -8.06964        14.81611
   C       -5.37784        -7.11750        14.99375
   C       -5.26388        -6.15540        15.95758
   C       -4.12417        -6.10110        16.78536
   C       -3.11440        -7.01045        16.63786
   F       -4.03829        -5.14576        17.71981
   F       -6.23694        -5.25096        16.12392
   C       -4.46493        -9.07024        13.82390
   C       -3.45158        -9.97781        13.67315
   C       -3.30313       -11.11344        12.76843
   C       -4.33494       -11.78200        12.16294
   C       -4.17590       -13.02697        11.52002
   N       -4.08096       -14.05470        11.01761
   C       -5.67356       -11.34184        12.18720
   N       -6.77281       -11.01297        12.16492
   H      -12.25631         1.18984        -3.08995
   H      -10.49399        -0.15415         1.34422
   H      -11.48438        -0.90551        -4.05977
   H       -9.67845        -2.30599         0.37280
   H       -9.08015        -5.85587        -4.77447
   H       -7.88757        -7.91985        -4.90049
   H       -4.64340       -12.17126        -1.69999
   H       -1.12886       -18.40933        -0.17651
   H       -2.15201       -17.56370        -2.25337
   H       -1.42963       -14.58695         4.33845
   H       -0.04296       -14.31290        10.40613
   H       -0.22338       -12.67702        12.47879
   H       -1.28551        -8.92682        16.09755
   H       -6.25843        -7.14761        14.37126
   H       -2.24908        -6.95481        17.27956
   H       -5.34277        -9.08752        13.19757
*
