# ORCA input file
# SCF done       -208.371993432300          0.000484409802
! CAM-B3LYP def2-SVP def2/J RIJCOSX Grid4 TightSCF
%maxcore 5000
%tddft
    Mode sTDDFT
    Ethresh 5.0
    maxcore 5000
end

%pal
  nprocs 6
  end
* xyz 0 1
   C        1.88991         1.72076         0.95804
   C        2.55722         2.61533         0.16216
   C        3.36874         2.23936        -0.92919
   N        4.04610         1.98806        -1.82047
   C        2.58950         4.00351         0.39458
   N        2.65826         5.13770         0.56084
   C        2.02089         0.26998         0.87327
   C        1.62318        -0.29675         2.11971
   C        1.67252        -1.64271         2.34319
   C        2.11671        -2.49673         1.30859
   C        2.49498        -1.93733         0.05345
   C        2.44119        -0.53880        -0.14759
   C        2.92493        -2.80174        -0.97357
   C        2.98328        -4.15388        -0.77163
   C        2.61269        -4.70367         0.46469
   C        2.18894        -3.89291         1.48259
   C        1.16545         0.77662         3.01693
   O        0.80798         0.69327         4.16911
   C        1.16741         2.01434         2.17886
   C        0.46662         3.09518         2.61610
   C       -0.00486         4.20257         1.87459
   C       -0.18743         4.31540         0.50409
   C       -0.71046         5.55070         0.14535
   C       -0.94006         6.39347         1.25068
   S       -0.52469         5.65249         2.72425
   C       -1.46313         7.62502         0.77768
   C       -1.55623         7.55586        -0.62740
   C       -1.07492         6.25774        -1.07006
   C       -0.95800         5.79849        -2.34877
   C       -1.33567         6.57599        -3.46380
   N       -1.65203         7.20790        -4.36615
   C       -0.45146         4.51040        -2.62333
   N       -0.04410         3.45852        -2.82944
   C       -2.07624         8.71757        -1.18643
   C       -2.38035         9.66094        -0.21695
   S       -2.00859         9.11146         1.41078
   C       -2.95340        10.93614        -0.43108
   C       -3.29944        11.89988         0.48695
   C       -3.24782        12.07135         1.93929
   O       -2.83484        11.32272         2.79466
   N       -3.80322        13.32499         2.17178
   C       -3.94611        13.89297         3.48949
   C       -4.21654        13.97651         1.01513
   O       -4.73800        15.06672         0.97853
   C       -3.88744        13.05547        -0.07421
   C       -4.01409        13.02077        -1.44279
   S       -3.36711        11.49997        -2.04458
   C       -4.58221        13.98019        -2.31305
   C       -4.70370        13.87611        -3.69038
   C       -5.34958        14.98031        -4.23436
   C       -5.71539        15.92829        -3.25745
   S       -5.26324        15.46971        -1.67679
   C       -6.38980        16.99455        -3.90415
   C       -6.45425        16.71705        -5.28649
   C       -5.78199        15.45363        -5.54040
   C       -5.58500        14.84483        -6.74388
   C       -6.00344        15.41225        -7.96739
   N       -6.31084        15.86352        -8.97503
   C       -4.92050        13.60369        -6.84864
   N       -4.38425        12.59381        -6.93124
   C       -7.15192        17.67885        -6.00604
   C       -7.62664        18.69656        -5.19058
   S       -7.15277        18.45947        -3.50421
   C       -8.36215        19.86384        -5.49201
   C       -9.14647        20.11883        -6.58079
   C       -9.78916        21.39259        -6.85607
   C       -9.46192        22.60358        -6.30307
   C      -10.10633        23.81651        -6.62479
   N      -10.59527        24.83331        -6.83679
   C       -8.42333        22.81793        -5.37280
   N       -7.58430        23.07150        -4.63059
   C      -10.78636        21.17622        -7.89605
   C      -10.71457        19.81693        -8.31276
   C       -9.67843        19.11326        -7.54006
   O       -9.38808        17.93991        -7.63251
   C      -11.52666        19.31504        -9.28846
   C      -12.46894        20.16825        -9.90447
   C      -12.55417        21.52837        -9.48768
   C      -11.69863        22.01894        -8.47443
   C      -13.50313        22.36854       -10.10492
   C      -14.32694        21.89085       -11.08767
   C      -14.24070        20.55215       -11.49822
   C      -13.33104        19.70917       -10.91948
   H        1.37441        -2.05232         3.29686
   H        2.71976        -0.14142        -1.11109
   H        3.21197        -2.37319        -1.92243
   H        3.31598        -4.80764        -1.56383
   H        2.66396        -5.77281         0.60646
   H        1.90175        -4.31079         2.43639
   H        0.17426         3.05783         3.66125
   H        0.01128         3.51292        -0.18243
   H       -2.23844         8.88912        -2.23584
   H       -3.67391        13.12713         4.21349
   H       -4.97754        14.21018         3.64392
   H       -3.29071        14.75804         3.60165
   H       -4.33945        13.02789        -4.24230
   H       -7.31369        17.65401        -7.06690
   H       -8.31281        20.62799        -4.72468
   H      -11.44815        18.28027        -9.58712
   H      -11.79240        23.05127        -8.17686
   H      -13.56491        23.39896        -9.78699
   H      -15.04987        22.54268       -11.55478
   H      -14.89859        20.19214       -12.27499
   H      -13.25944        18.67739       -11.23101
*
