# ORCA input file
# SCF done       -179.752060520370          0.000421258021
! CAM-B3LYP def2-SVP def2/J RIJCOSX Grid4 TightSCF
%maxcore 5000
%tddft
    Mode sTDDFT
    Ethresh 5.0
    maxcore 5000
end

%pal
  nprocs 6
  end
* xyz 0 1
   C        9.06860       -10.95465        -5.92162
   S        9.86564       -10.53388        -7.37531
   C       11.28013       -11.36686        -6.91868
   C       11.14918       -11.96230        -5.68455
   C        9.85454       -11.72701        -5.10153
   C        9.53188       -12.25303        -3.80178
   C       10.50370       -13.04364        -3.18365
   C       11.77424       -13.25959        -3.77460
   C       12.10604       -12.73269        -4.98289
   O       10.30189       -13.70583        -2.02877
   C        8.23897       -11.97262        -3.25900
   C        7.86966       -11.93745        -1.94839
   C        6.55176       -11.66239        -1.49701
   C        6.28677       -11.66238        -0.09732
   C        4.98290       -11.39803         0.44284
   N        4.79306       -11.39897         1.76291
   C        5.81104       -11.64791         2.56373
   C        7.10020       -11.93560         2.02904
   N        7.30624       -11.93787         0.73093
   C        8.18183       -12.22737         2.89722
   N        9.03516       -12.45704         3.62628
   C        5.60229       -11.62975         3.96310
   N        5.46270       -11.62114         5.10082
   C        3.84982       -11.13598        -0.39970
   C        4.13700       -11.08703        -1.78978
   C        5.44670       -11.35793        -2.32615
   N        5.45541       -11.23696        -3.65751
   S        3.99363       -10.83317        -4.18051
   N        3.27032       -10.77548        -2.74425
   C        2.60367       -10.97167         0.19953
   C        1.33114       -10.80699        -0.32856
   C        0.18702       -10.71904         0.49196
   C       -0.99373       -10.60536        -0.19248
   C       -0.81765       -10.60284        -1.58289
   S        0.86563       -10.72637        -2.01002
   C       -1.80179       -10.50051        -2.57351
   C       -3.17483       -10.29050        -2.40454
   C       -3.84922       -10.20002        -3.59477
   C       -3.03732       -10.33623        -4.73817
   S       -1.38407       -10.63019        -4.26271
   C       -3.54346       -10.17430        -6.02216
   C       -2.94900       -10.18513        -7.27999
   C       -1.59127       -10.50614        -7.58429
   C       -1.06881       -10.42165        -8.93246
   N        0.25703       -10.51529        -9.12827
   C        1.03145       -10.84700        -8.12704
   C        0.48228       -11.16152        -6.84495
   N       -0.79954       -10.92071        -6.60832
   C        1.31063       -11.73554        -5.87197
   N        2.06890       -12.24673        -5.17204
   C        2.43401       -10.90703        -8.30795
   N        3.57451       -10.98383        -8.39416
   C       -1.89546       -10.16375       -10.04281
   C       -3.23722        -9.82204        -9.75111
   C       -3.75399        -9.83916        -8.40986
   N       -5.03568        -9.50126        -8.36870
   S       -5.55070        -9.19160        -9.86894
   N       -4.16393        -9.47858       -10.64104
   C       -1.39575       -10.13011       -11.37908
   S       -1.92892        -8.84758       -12.42489
   C       -0.80084        -9.26694       -13.62554
   C       -0.06728       -10.38725       -13.29348
   C       -0.43241       -10.92162       -12.01315
   C        0.09853       -12.17073       -11.59018
   C        1.06228       -12.76710       -12.39263
   C        1.49465       -12.16845       -13.60326
   C        0.93377       -11.02099       -14.06483
   O        1.60202       -13.97568       -12.12584
   C       -0.47542       -12.87303       -10.44292
   C        0.18682       -13.57557        -9.52884
   H        8.06566       -10.61175        -5.76787
   H       12.13329       -11.37960        -7.56673
   H       12.46465       -13.87362        -3.21816
   H       13.07752       -12.90220        -5.42022
   H        9.38388       -13.61784        -1.73619
   H        7.47621       -11.71651        -3.97992
   H        8.58528       -12.04987        -1.14368
   H        2.63734       -11.01660         1.28286
   H        0.26302       -10.74770         1.56482
   H       -1.95919       -10.53368         0.27519
   H       -3.63913       -10.19370        -1.43944
   H       -4.90755       -10.02385        -3.67640
   H       -4.60469        -9.95140        -6.05559
   H       -0.72586        -8.68328       -14.52160
   H        2.25506       -12.69277       -14.15965
   H        1.22438       -10.59413       -15.01180
   H        1.18671       -14.35756       -11.33814
   H       -1.55713       -12.81111       -10.37992
   H        1.26503       -13.60055        -9.47649
   H       -0.33050       -14.09637        -8.73955
*
