# ORCA input file
# SCF done       -171.751897938141          0.000740941754
! CAM-B3LYP def2-SVP def2/J RIJCOSX Grid4 TightSCF
%maxcore 5000
%tddft
    Mode sTDDFT
    Ethresh 5.0
    maxcore 5000
end

%pal
  nprocs 6
  end
* xyz 0 1
   C       -5.37653         3.68119         2.33184
   C       -6.54911         3.27868         1.72084
   C       -7.40198         2.26221         2.19754
   N       -8.16162         1.45889         2.50979
   C       -7.07812         3.77978         0.53005
   N       -7.57333         4.13729        -0.44935
   C       -4.84902         3.05018         3.54051
   C       -3.59397         3.62386         3.86079
   C       -2.84844         3.23335         4.94502
   C       -3.36685         2.22423         5.76426
   C       -4.62174         1.65670         5.44127
   C       -5.37339         2.05134         4.34169
   S       -5.08109         0.43028         6.58386
   C       -3.60133         0.69428         7.46769
   C       -2.80283         1.65061         6.93586
  Br       -3.25161        -0.31581         9.00882
   C       -3.28278         4.66456         2.86948
   O       -2.29507         5.36402         2.81210
   C       -4.44458         4.70834         1.94069
   C       -4.38813         5.71131         1.00938
   N       -5.26350         6.10872         0.07843
   C       -5.11191         7.20813        -0.71977
   S       -3.72555         8.24456        -0.58542
   C       -4.41253         9.28380        -1.79087
   N       -3.69947        10.41877        -2.16869
   O       -2.58894        10.57449        -1.68093
   O       -4.22965        11.18377        -2.96359
   C       -5.62267         8.84711        -2.26561
   C       -6.04410         7.64273        -1.66947
   C       -7.24586         6.92382        -2.00279
   C       -8.26762         7.47215        -2.68306
   N       -9.38214         6.78325        -3.06898
   C      -10.47375         7.36544        -3.69677
   C      -11.77536         7.03048        -3.46380
   S      -12.87219         7.99206        -4.37223
   C      -11.57902         8.85795        -5.09507
   C      -10.36067         8.41747        -4.67061
   N       -9.13240         8.87171        -5.13832
   C       -8.72990        10.17100        -5.17074
   C       -7.43937        10.53179        -5.38054
   C       -6.96536        11.85434        -5.28162
   C       -5.64838        12.20797        -5.38863
   C       -5.08499        13.48938        -5.16972
   C       -3.73377        13.53779        -5.30063
   C       -3.14735        12.30076        -5.65978
   S       -4.37309        11.06787        -5.78970
   C       -1.81589        12.05052        -5.91560
   C       -0.72776        12.94630        -5.81246
   C        0.47019        12.42512        -6.18918
   C        0.40272        11.07800        -6.63021
   S       -1.25735        10.49014        -6.49077
   C        1.42282        10.32591        -7.12919
   N        1.25484         9.05254        -7.57907
   C        2.19458         8.27266        -8.15499
   S        3.82164         8.84592        -8.36155
   C        4.23755         7.33952        -9.12443
   N        5.54574         7.18429        -9.56084
   O        5.85077         6.13112       -10.10052
   O        6.30636         8.12541        -9.36912
   C        3.18340         6.46468        -9.20571
   C        1.99924         6.97507        -8.65611
   C        0.73030         6.27796        -8.60418
   C        0.48844         5.08333        -9.13553
   H       -1.89591         3.69326         5.15585
   H       -6.32383         1.58407         4.14848
   H       -1.85545         1.94067         7.35193
   H       -3.47912         6.30612         1.06522
   H       -6.12081         5.57949        -0.06123
   H       -6.15508         9.38502        -3.02844
   H       -7.32012         5.89008        -1.70112
   H       -8.25258         8.51771        -2.94746
   H       -9.52041         5.87171        -2.65429
   H      -12.14984         6.28052        -2.79700
   H      -11.78220         9.62539        -5.81378
   H       -8.40190         8.17433        -5.20306
   H       -9.50163        10.90179        -4.97766
   H       -6.70600         9.76140        -5.58730
   H       -7.67700        12.63534        -5.04965
   H       -5.70158        14.33008        -4.90423
   H       -3.14190        14.42350        -5.15638
   H       -0.86202        13.95202        -5.45797
   H        1.40195        12.96111        -6.17927
   H        2.41885        10.73535        -7.20077
   H        0.31746         8.67269        -7.50202
   H        3.29035         5.49283        -9.65001
   H       -0.07321         6.78767        -8.08684
   H        1.23748         4.52425        -9.66707
   H       -0.48200         4.62609        -9.05707
*
