# ORCA input file
# SCF done       -208.628967399802          0.000336285627
! CAM-B3LYP def2-SVP def2/J RIJCOSX Grid4 TightSCF
%maxcore 5000
%tddft
    Mode sTDDFT
    Ethresh 5.0
    maxcore 5000
end

%pal
  nprocs 6
  end
* xyz 0 1
   C      -13.69603         2.82060         1.27198
   C      -14.69027         3.48634         1.94221
   C      -15.94056         2.91777         2.24750
   N      -16.97766         2.49992         2.51188
   C      -14.61774         4.83219         2.36134
   N      -14.66229         5.92628         2.70556
   C      -13.79587         1.47960         0.71098
   C      -12.62947         1.22669        -0.05026
   C      -12.40987         0.03444        -0.69468
   C      -13.39455        -0.95395        -0.59392
   C      -14.55048        -0.69786         0.18031
   C      -14.76862         0.50672         0.83925
   S      -15.62193        -2.06468         0.19365
   C      -14.52764        -2.93891        -0.84593
   C      -13.40925        -2.25131        -1.17402
  Br      -14.96831        -4.67522        -1.38945
   C      -11.71176         2.38130         0.04943
   O      -10.58620         2.42581        -0.40408
   C      -12.39917         3.35795         0.92330
   C      -11.81122         4.44040         1.52171
   C      -10.59847         5.05837         1.13817
   C       -9.77410         5.67531         2.11700
   C       -8.47244         6.19139         1.80195
   N       -7.70005         6.68931         2.76731
   C       -8.15119         6.71923         4.00618
   C       -9.45028         6.21984         4.31704
   N      -10.21588         5.70427         3.38460
   C       -9.92275         6.26622         5.65430
   N      -10.26087         6.31635         6.74708
   C       -7.32174         7.25249         5.02179
   N       -6.66661         7.67697         5.86068
   C       -7.94239         6.17594         0.46234
   C       -8.85377         5.71272        -0.52565
   C      -10.14185         5.15207        -0.19439
   N      -10.82391         4.79839        -1.27969
   S       -9.93808         5.07903        -2.58306
   N       -8.65504         5.71363        -1.83676
   C       -6.60994         6.54684         0.27417
   C       -5.84290         6.62680        -0.88061
   C       -4.44679         6.86071        -0.89633
   C       -3.87476         6.85324        -2.14315
   C       -4.81349         6.65717        -3.16473
   S       -6.42039         6.44344        -2.50443
   C       -4.73405         6.51934        -4.55151
   C       -3.70454         6.18745        -5.44846
   C       -4.15984         5.84364        -6.69622
   C       -5.56790         5.89200        -6.84086
   S       -6.26871         6.53966        -5.37544
   C       -6.34794         5.32010        -7.82721
   C       -7.74602         5.20280        -7.75103
   S       -8.67901         6.24844        -6.72124
   C      -10.05749         5.18345        -6.78209
   C       -9.83071         4.14009        -7.68730
   C       -8.55839         4.17123        -8.25673
   C       -8.07732         3.15982        -9.25442
   C       -8.01286         3.80447       -10.64555
   C       -8.98331         1.92372        -9.23959
   C      -10.45779         2.30822        -9.25264
   C      -10.81256         3.05160        -7.96820
   C      -11.03406         5.44815        -5.80316
   C      -11.96719         4.60325        -5.27469
   C      -12.60854         4.93674        -4.06370
   C      -13.30047         4.11662        -3.21833
   C      -13.52921         2.69379        -3.22639
   C      -12.68863         1.72208        -3.71260
   C      -12.99939         0.34891        -3.71892
   N      -13.21538        -0.77674        -3.79656
   C      -11.39242         1.96975        -4.20105
   N      -10.32071         2.10190        -4.59458
   C      -14.74399         2.45078        -2.45466
   C      -15.09231         3.64386        -1.77049
   C      -14.14127         4.71083        -2.14489
   O      -14.08466         5.84181        -1.72311
   C      -16.20345         3.73523        -0.96813
   C      -17.02046         2.60481        -0.85074
   C      -16.66399         1.42064        -1.54040
   C      -15.53085         1.32210        -2.33952
   S      -17.82416         0.15750        -1.27507
   C      -18.75480         1.21703        -0.24841
   C      -18.22981         2.45801        -0.11863
  Br      -20.32738         0.58139         0.53707
   H      -11.50161        -0.13778        -1.25134
   H      -15.65381         0.64715         1.43733
   H      -12.63383        -2.63119        -1.81277
   H      -12.25236         4.83526         2.42946
   H       -6.08608         6.78106         1.19419
   H       -3.89543         7.00462         0.01659
   H       -2.82519         6.99838        -2.32965
   H       -2.67267         6.13784        -5.14857
   H       -3.52285         5.50590        -7.49508
   H       -5.83535         4.79833        -8.62375
   H       -7.06385         2.84514        -8.98212
   H       -7.34693         4.66412       -10.63948
   H       -8.99593         4.14394       -10.96045
   H       -7.64491         3.08545       -11.37340
   H       -8.78046         1.34411        -8.33660
   H       -8.74933         1.29752       -10.10167
   H      -10.67208         2.94034       -10.11557
   H      -11.07456         1.41240        -9.33582
   H      -10.78277         2.35363        -7.12329
   H      -11.82213         3.46309        -8.03126
   H      -10.89447         6.39480        -5.29220
   H      -12.16112         3.64492        -5.72521
   H      -12.57293         5.97630        -3.75342
   H      -16.44908         4.65621        -0.46184
   H      -15.30884         0.40531        -2.86085
   H      -18.67034         3.23487         0.47832
*
