# ORCA input file
# SCF done       -210.262915377466          0.000819314903
! CAM-B3LYP def2-SVP def2/J RIJCOSX Grid4 TightSCF
%maxcore 5000
%tddft
    Mode sTDDFT
    Ethresh 5.0
    maxcore 5000
end

%pal
  nprocs 6
  end
* xyz 0 1
   C      -12.90757        -7.20700        -3.54821
   C      -12.77544        -6.69069        -4.80706
   F      -13.83615        -6.62964        -5.62486
   C      -11.52898        -6.21726        -5.26069
   F      -11.42727        -5.71702        -6.50090
   C      -10.43103        -6.26447        -4.44785
   C      -10.53586        -6.78869        -3.14544
   C      -11.79531        -7.26987        -2.68562
   C      -11.92424        -7.80171        -1.38059
   C      -10.82855        -7.84377        -0.56071
   C       -9.57655        -7.35771        -1.02876
   C       -9.41761        -6.84756        -2.28346
   C       -8.56635        -7.52449         0.03191
   O       -7.36938        -7.31117        -0.07574
   C       -9.27385        -8.09800         1.18180
   C      -10.65519        -8.31263         0.81393
   C      -11.65708        -8.80079         1.61568
   C      -11.50954        -9.18040         2.96533
   N      -11.47393        -9.49234         4.07050
   C      -12.99112        -8.97202         1.19340
   N      -14.09118        -9.13939         0.90911
   C       -8.67747        -8.50295         2.35903
   C       -7.43081        -8.12444         2.85769
   S       -6.72106        -9.10680         4.14643
   C       -6.59335        -7.03555         2.61526
   S       -6.63848        -5.62829         1.62794
   C       -5.11714        -5.14715         2.35997
   N       -4.61857        -5.93808         3.23406
   C       -5.43061        -7.00638         3.42237
   C       -5.31580        -8.09130         4.30276
   C       -4.20581        -8.32929         5.11444
   C       -4.03674        -9.39141         5.96961
   C       -2.86592        -9.70821         6.66576
   C       -1.60300        -9.16498         6.50894
   C       -0.43719        -9.58155         7.19740
   C        0.71337        -8.96187         6.80035
   C        0.51557        -8.01367         5.77696
   S       -1.17634        -7.92602         5.35237
   C        1.42249        -7.21613         5.10057
   C        2.82682        -7.13589         5.20970
   C        3.39510        -6.26157         4.33176
   C        2.46903        -5.59689         3.48628
   S        0.84370        -6.12431         3.86249
   C        2.76701        -4.69110         2.49860
   C        1.85294        -4.02449         1.66663
   C        2.19465        -3.15210         0.62363
   C        3.53329        -2.88729         0.30802
   N        4.64424        -2.70728         0.08253
   C        1.06101        -2.61820        -0.03494
   C       -0.12029        -3.09604         0.52686
   S        0.11322        -4.18965         1.83292
   S       -1.57799        -2.50500        -0.20280
   C       -0.59657        -1.59310        -1.29840
   C        0.77879        -1.73556        -1.11917
   C        1.49950        -0.99122        -2.08502
   C        2.89512        -0.85480        -2.13714
   N        4.02893        -0.70075        -2.21592
   C        0.66436        -0.31217        -2.96781
   S       -1.02439        -0.54463        -2.58634
   C        1.01199         0.54322        -4.04855
   C        2.10567         0.51443        -4.84938
   C        2.44575         1.73996        -5.63956
   O        1.72712         2.69136        -5.82791
   C        3.84131         1.54286        -6.06950
   C        4.67883         2.42135        -6.69583
   C        6.00410         2.02211        -6.97791
   C        6.44093         0.72002        -6.59412
   C        7.76858         0.33413        -6.86846
   C        8.62066         1.19741        -7.49796
   C        8.18705         2.48388        -7.87890
   C        6.90681         2.88897        -7.62469
   F        9.04421         3.30892        -8.49383
   F        9.88030         0.82901        -7.76139
   C        5.55040        -0.16994        -5.95229
   C        4.26560         0.23301        -5.70451
   C        3.14569        -0.46816        -5.08708
   C        3.02776        -1.82737        -4.98923
   C        1.86282        -2.48794        -4.55324
   N        0.92898        -3.06516        -4.21748
   C        4.03347        -2.73233        -5.39289
   N        4.80621        -3.51259        -5.72360
   H      -13.86980        -7.56520        -3.21698
   H       -9.48287        -5.89839        -4.80952
   H      -12.88991        -8.16335        -1.06662
   H       -8.45385        -6.48985        -2.61252
   H       -9.21354        -9.21225         2.97703
   H       -4.64067        -4.23666         2.05302
   H       -3.44232        -7.57191         5.01518
   H       -4.88091       -10.05483         6.11396
   H       -2.93006       -10.51965         7.37967
   H       -0.48095       -10.33804         7.96123
   H        1.68610        -9.16808         7.20935
   H        3.37688        -7.72782         5.91903
   H        4.45091        -6.07071         4.25784
   H        3.81174        -4.46469         2.32655
   H        0.32684         1.36541        -4.23693
   H        4.33641         3.40787        -6.96897
   H        8.11515        -0.64733        -6.58513
   H        6.59111         3.87690        -7.92145
   H        5.90804        -1.14240        -5.65463
*
