# ORCA input file
# SCF done       -185.987725858697          0.000676535102
! CAM-B3LYP def2-SVP def2/J RIJCOSX Grid4 TightSCF
%maxcore 5000
%tddft
    Mode sTDDFT
    Ethresh 5.0
    maxcore 5000
end

%pal
  nprocs 6
  end
* xyz 0 1
   C        0.87226         1.46226         3.46750
   C        2.23173         1.49532         3.60432
   F        2.86903         2.66965         3.72222
   C        2.97925         0.30195         3.62271
   F        4.31300         0.36359         3.75599
   C        2.35681        -0.90941         3.50618
   C        0.95756        -0.97649         3.36457
   C        0.20066         0.22984         3.34287
   C       -1.20554         0.18767         3.19472
   C       -1.83360        -1.02263         3.07214
   C       -1.07010        -2.22249         3.10114
   C        0.28656        -2.21454         3.24209
   C       -1.97811        -3.38034         2.95226
   O       -1.65246        -4.55191         2.94034
   C       -3.33179        -2.80903         2.81970
   C       -3.24357        -1.37403         2.89700
   C       -4.27661        -0.46794         2.81931
   C       -5.63874        -0.78228         2.64444
   N       -6.76716        -0.94703         2.49987
   C       -4.10884         0.92823         2.90586
   N       -4.04282         2.07371         2.96408
   C       -4.48063        -3.55241         2.63088
   C       -4.53729        -4.93965         2.55262
   C       -5.71262        -5.62571         2.31099
   C       -5.86655        -7.02598         2.18700
   C       -7.13881        -7.42559         1.90071
   C       -8.05461        -6.35721         1.78849
   S       -7.25074        -4.82897         2.07634
   C       -9.39778        -6.41359         1.46477
   C      -10.17021        -7.54567         1.11333
   C      -11.45586        -7.26036         0.77613
   C      -11.78033        -5.88152         0.86187
   S      -10.37065        -4.96728         1.39823
   C      -12.97720        -5.29253         0.57828
   N      -13.18680        -3.95832         0.72924
   C      -14.32477        -3.24088         0.53396
   S      -14.11412        -1.55808         0.12680
   C      -15.82814        -1.39611        -0.08005
   N      -16.33238        -0.13973        -0.43591
   O      -17.53616        -0.03457        -0.58011
   O      -15.51677         0.75541        -0.57667
   C      -16.50655        -2.56002         0.15043
   C      -15.67337        -3.63077         0.53760
   C      -16.26950        -4.87342         0.95340
   C      -15.74855        -5.80290         1.77734
   C      -16.42420        -7.00508         2.14034
   C      -15.83140        -8.11345         2.73210
   C      -14.45156        -8.12182         2.98628
   N      -13.31508        -8.05283         3.12970
   C      -16.75345        -9.17195         2.95564
   C      -18.03004        -8.81925         2.53154
   S      -18.13123        -7.24285         1.84921
   S      -19.24858       -10.03069         2.76453
   C      -18.02244       -11.05018         3.44334
   C      -16.74827       -10.49437         3.48733
   C      -15.80707       -11.40552         4.04029
   C      -14.43248       -11.15965         4.18953
   N      -13.30821       -10.96130         4.29389
   C      -16.40006       -12.60682         4.40066
   S      -18.11064       -12.65175         4.06941
   C      -15.75819       -13.73741         4.98396
   O      -14.43616       -13.71192         5.25400
   C      -14.07000       -14.89157         5.80066
   C      -15.18763       -15.70331         5.88607
   C      -16.26632       -14.96787         5.36506
   F      -17.53465       -15.35911         5.25065
   F      -15.23775       -16.94343         6.36748
   C      -12.69254       -15.07910         6.16842
   C      -12.20275       -16.18768         6.71835
   H        0.31438         2.38562         3.45459
   H        2.94375        -1.81443         3.52236
   H       -1.74750         1.11915         3.18009
   H        0.84188        -3.14008         3.25849
   H       -5.41941        -3.02269         2.52352
   H       -3.62796        -5.51129         2.66918
   H       -5.03002        -7.69110         2.30691
   H       -7.43830        -8.44984         1.77068
   H       -9.75297        -8.53565         1.11438
   H      -12.18717        -7.99174         0.48577
   H      -13.79756        -5.88366         0.20546
   H      -12.35286        -3.41064         0.92073
   H      -17.57731        -2.62582         0.07656
   H      -17.28175        -5.01944         0.59600
   H      -14.76277        -5.69162         2.20699
   H      -12.06702       -14.22319         5.95798
   H      -12.81984       -17.04314         6.93102
   H      -11.16077       -16.26561         6.97136
*
