# ORCA input file
# SCF done       -128.442508399375          0.000189261869
! CAM-B3LYP def2-SVP def2/J RIJCOSX Grid4 TightSCF
%maxcore 5000
%tddft
    Mode sTDDFT
    Ethresh 5.0
    maxcore 5000
end

%pal
  nprocs 6
  end
* xyz 0 1
   C       -4.91338        -7.64804         2.22681
   C       -3.88554        -7.36663         3.03978
   C       -3.93685        -6.81005         4.36070
   C       -2.72990        -6.65544         4.95028
   C       -1.62725        -7.06724         4.15320
   S       -2.19530        -7.65957         2.60244
   C       -0.29374        -7.04527         4.48681
   C        0.28797        -6.62293         5.70765
   C        1.64137        -6.74610         5.74475
   C        2.21388        -7.27067         4.55889
   S        0.95424        -7.59151         3.38035
   C        3.54154        -7.52512         4.32539
   C        4.03121        -8.05902         3.12241
   O        3.17071        -8.30919         2.10753
   C        3.87527        -8.83001         1.07381
   C        5.21887        -8.91590         1.43656
   C        5.32000        -8.42423         2.73209
   C        3.21459        -9.17186        -0.12351
   C        1.88005        -8.94821        -0.30718
   C        1.14691        -9.25324        -1.46053
   C       -0.21347        -8.96603        -1.69903
   C       -0.66067        -9.40556        -2.97729
   C       -1.99552        -9.18117        -3.35784
   C       -2.84270        -8.53880        -2.49607
   C       -2.39790        -8.10241        -1.23669
   C       -1.10676        -8.30968        -0.83530
   C        0.35137       -10.04136        -3.72694
   S        1.84248       -10.06620        -2.83058
   C        0.24064       -10.60216        -5.00687
   C        1.24423       -11.24185        -5.67512
   C        1.09558       -11.80696        -6.95789
   O       -0.07790       -11.71957        -7.63015
   C        0.07088       -12.35774        -8.81964
   C        1.36797       -12.86390        -8.90816
   C        2.01572       -12.51309        -7.73151
   C       -1.02065       -12.39888        -9.70843
   C       -1.01179       -13.02893       -10.92153
   C       -2.10656       -13.05016       -11.79318
   C       -2.12221       -13.69607       -13.00583
   C       -3.19208       -13.74807       -13.93152
   C       -2.93207       -14.47159       -15.05419
   C       -1.63654       -15.04122       -15.08397
   S       -0.75685       -14.61152       -13.62930
   C       -1.08159       -15.83046       -16.06447
   C       -1.68371       -16.25119       -17.28117
   C       -0.89780       -17.03675       -18.05188
   C        0.39909       -17.30170       -17.49996
   S        0.54425       -16.47692       -15.93963
   C        1.38159       -18.04498       -18.02830
   H       -5.92536        -7.45282         2.53476
   H       -4.76547        -8.08037         1.25429
   H       -4.87963        -6.55547         4.81175
   H       -2.58614        -6.25739         5.93934
   H       -0.30675        -6.24824         6.52155
   H        2.25533        -6.48174         6.58805
   H        4.25866        -7.31742         5.10467
   H        6.01007        -9.28968         0.81848
   H        6.20380        -8.33771         3.33127
   H        3.81448        -9.61314        -0.90600
   H        1.33150        -8.48759         0.50308
   H       -2.34303        -9.51268        -4.32428
   H       -3.86865        -8.36062        -2.78325
   H       -3.08540        -7.59226        -0.57888
   H       -0.77506        -7.97458         0.13447
   H       -0.72299       -10.52384        -5.49073
   H        2.21801       -11.34606        -5.21833
   H        1.77443       -13.41383        -9.73205
   H        3.02592       -12.73454        -7.45197
   H       -1.91655       -11.88951        -9.37969
   H       -0.11777       -13.54703       -11.24115
   H       -3.00729       -12.52583       -11.50090
   H       -4.12327       -13.24583       -13.73464
   H       -3.63255       -14.61390       -15.85759
   H       -2.68433       -15.95417       -17.54184
   H       -1.18349       -17.44925       -19.00332
   H        1.25124       -18.53138       -18.97883
   H        2.32098       -18.18053       -17.52483
*
