# ORCA input file
# SCF done       -223.461204468403          0.000607257418
! CAM-B3LYP def2-SVP def2/J RIJCOSX Grid4 TightSCF
%maxcore 5000
%tddft
    Mode sTDDFT
    Ethresh 5.0
    maxcore 5000
end

%pal
  nprocs 6
  end
* xyz 0 1
   C       -4.29595        -0.25963        -6.81522
   C       -3.95295         0.71052        -7.74313
   C       -3.82795         0.33520        -9.08176
   C       -3.47329         1.31028       -10.04686
   N       -3.18400         2.10260       -10.82088
   C       -4.04482        -0.99459        -9.49191
   C       -3.91850        -1.34337       -10.85787
   N       -3.82193        -1.64791       -11.95765
   C       -4.38192        -1.96942        -8.55214
   C       -4.49997        -1.58632        -7.23309
   C       -4.83504        -2.43868        -6.06662
   O       -5.05537        -3.62827        -6.11913
   C       -4.77212        -1.53954        -4.89054
   C       -4.50862        -0.19059        -5.37103
   C       -4.53719         0.96493        -4.63732
   C       -4.29587         2.24850        -5.17438
   N       -4.10315         3.31491        -5.55127
   C       -4.84310         1.06191        -3.26145
   N       -5.10137         1.23986        -2.15687
   C       -4.75842        -1.87751        -3.56593
   C       -5.06236        -3.10133        -2.89488
   C       -5.87038        -4.11782        -3.43702
   C       -6.10699        -5.25045        -2.70190
   C       -5.56443        -5.40560        -1.41228
   C       -4.78773        -4.39669        -0.85183
   C       -4.55600        -3.25722        -1.58696
   C       -5.98159        -6.68616        -0.88932
   C       -6.77210        -7.32798        -1.85916
   C       -6.91679        -6.46439        -3.08820
   C       -8.39227        -6.10386        -3.34441
   C       -9.05830        -5.44203        -2.14417
   C       -6.32819        -7.14614        -4.33818
   C       -4.86422        -7.53305        -4.16854
   C       -7.30748        -8.56999        -1.61618
   C       -7.06310        -9.18945        -0.38676
   C       -6.28279        -8.54089         0.57452
   C       -5.73787        -7.29537         0.33335
   C       -7.64723       -10.50071        -0.10544
   C       -6.97082       -11.52057         0.55613
   C       -7.53792       -12.79197         0.83742
   N       -6.68107       -13.65077         1.45985
   C       -5.53227       -13.13479         1.65084
   S       -5.31626       -11.49496         1.10483
   C       -8.86198       -13.09800         0.46740
   C       -9.53087       -12.07130        -0.20188
   C       -8.95890       -10.81003        -0.49459
   N       -9.80161        -9.95130        -1.14100
   C      -10.94196       -10.47341        -1.35488
   S      -11.16870       -12.10985        -0.79199
   C       -9.52879       -14.34765         0.72277
   C       -9.04367       -15.35732         1.46635
   C       -9.71606       -16.60562         1.74535
   C       -9.21663       -17.40581         2.78487
   C       -9.82885       -18.59722         3.08536
   C      -10.94371       -19.03019         2.34714
   C      -11.44440       -18.25211         1.31093
   C      -10.83278       -17.04991         1.02326
   C      -11.34987       -20.32156         2.84898
   C      -10.49909       -20.68096         3.91271
   C       -9.49996       -19.58169         4.18668
   C       -8.05215       -20.08805         4.10206
   C       -7.72120       -20.67804         2.73578
   C       -9.78125       -18.86372         5.52863
   C       -9.70972       -19.73291         6.77698
   C      -10.63302       -21.90347         4.52122
   C      -11.60932       -22.80270         4.06105
   C      -12.47571       -22.41346         3.02744
   C      -12.35873       -21.17959         2.42762
   C      -11.72690       -24.08786         4.68866
   C      -12.13816       -25.25963         4.13875
   C      -12.58447       -26.37550         5.01146
   O      -12.44637       -26.47138         6.20748
   C      -13.28504       -27.31715         4.10427
   C      -13.98812       -28.45852         4.42619
   C      -14.59231       -29.17396         3.39086
   C      -14.48040       -28.72521         2.06065
   C      -13.75852       -27.57299         1.74424
   C      -13.15622       -26.87051         2.77395
   C      -12.32149       -25.66899         2.76021
   C      -11.63771       -25.19675         1.67276
   C      -10.62195       -24.21982         1.74975
   N       -9.73901       -23.48740         1.75907
   C      -11.79957       -25.69788         0.36418
   N      -11.91627       -26.06159        -0.71775
   C      -15.11452       -29.45465         1.02434
   N      -15.62721       -30.03418         0.18072
   C      -15.32502       -30.35052         3.67912
   N      -15.91524       -31.29844         3.93278
   H       -3.77484         1.73757        -7.46757
   H       -4.54608        -2.99470        -8.84742
   H       -4.42570        -1.09539        -2.89196
   H       -6.30817        -3.99984        -4.41251
   H       -4.37971        -4.50163         0.14196
   H       -3.95627        -2.46342        -1.16517
   H       -8.93384        -7.01745        -3.59634
   H       -8.44161        -5.43451        -4.20556
   H       -9.06013        -6.11367        -1.28875
   H      -10.08853        -5.18877        -2.38282
   H       -8.53631        -4.52880        -1.86570
   H       -6.42080        -6.46257        -5.18371
   H       -6.91785        -8.03859        -4.55687
   H       -4.25125        -6.64987        -4.00500
   H       -4.50674        -8.03434        -5.06466
   H       -4.73559        -8.20536        -3.32275
   H       -7.91062        -9.07165        -2.35555
   H       -6.12879        -9.00731         1.53588
   H       -5.14328        -6.80449         1.08883
   H       -4.72166       -13.65242         2.12568
   H      -11.74461        -9.96456        -1.85197
   H      -10.51560       -14.41828         0.28232
   H       -8.07383       -15.23254         1.92673
   H       -8.35332       -17.06864         3.34011
   H      -12.29656       -18.58317         0.73641
   H      -11.21123       -16.44952         0.21058
   H       -7.89451       -20.85008         4.86622
   H       -7.37824       -19.25505         4.31439
   H       -8.37240       -21.51770         2.50719
   H       -6.69190       -21.02879         2.72251
   H       -7.83839       -19.93001         1.95474
   H      -10.77832       -18.41868         5.46881
   H       -9.06244       -18.04672         5.62115
   H      -10.49029       -20.48871         6.76999
   H       -9.85423       -19.10923         7.65665
   H       -8.74304       -20.22091         6.86678
   H       -9.96266       -22.21967         5.30541
   H      -13.26661       -23.08476         2.72343
   H      -13.03142       -20.89132         1.63417
   H      -11.51722       -24.12843         5.75345
   H      -14.06918       -28.78906         5.45055
   H      -13.69562       -27.25393         0.71570
*
