# ORCA input file
# SCF done       -165.768411554710          0.000445633110
! CAM-B3LYP def2-SVP def2/J RIJCOSX Grid4 TightSCF
%maxcore 5000
%tddft
    Mode sTDDFT
    Ethresh 5.0
    maxcore 5000
end

%pal
  nprocs 6
  end
* xyz 0 1
   C       -2.79942        -0.50405         2.87695
   C       -2.27275         0.46959         3.70861
   C       -3.12809         1.10998         4.60837
   C       -2.61033         2.10704         5.47157
   N       -2.18698         2.91221         6.16674
   C       -4.49617         0.78475         4.67341
   C       -5.33906         1.44450         5.59930
   N       -6.04109         1.96256         6.34131
   C       -5.02437        -0.18937         3.82401
   C       -4.16898        -0.81956         2.94689
   C       -4.48980        -1.87053         1.95203
   O       -5.60157        -2.25039         1.65530
   C       -3.19985        -2.20863         1.31338
   C       -2.17478        -1.35190         1.85925
   C       -0.83820        -1.36657         1.54974
   C        0.12078        -0.51430         2.13571
   N        0.94223         0.15743         2.57318
   C       -0.23795        -2.23873         0.61752
   N        0.31849        -2.92480        -0.11599
   C       -3.06596        -3.07020         0.25012
   C       -3.99120        -4.06524        -0.08764
   S       -4.09140        -4.68028        -1.72682
   C       -4.90602        -4.74859         0.71484
   N       -5.12664        -4.73419         2.05261
   C       -6.05105        -5.54424         2.38136
   S       -6.78404        -6.47906         1.08486
   C       -5.69763        -5.68078        -0.00483
   C       -5.40441        -5.76439        -1.35740
   C       -6.02700        -6.54479        -2.35572
   N       -7.13533        -7.32275        -2.09380
   C       -7.51958        -7.91636        -3.25275
   C       -8.47024        -8.75135        -3.81873
   C       -8.13526        -8.85385        -5.18063
   N       -7.00282        -8.10246        -5.42899
   C       -6.61232        -7.51038        -4.27376
   C       -5.68028        -6.64916        -3.71082
   C       -8.78070        -9.55561        -6.21989
   C       -9.95194       -10.23985        -6.08423
   C      -10.57171       -10.91222        -7.15245
   S      -12.11080       -11.69258        -6.93865
   C      -10.14881       -11.06724        -8.47547
   N       -9.03392       -10.65067        -9.13327
   C       -9.06128       -11.01673       -10.35581
   S      -10.47042       -11.92961       -10.88406
   C      -11.07001       -11.78851        -9.27466
   C      -12.20905       -12.23207        -8.61156
   C      -13.31656       -12.86376        -9.18619
   C      -14.41775       -13.40975        -8.57873
   C      -15.69151       -13.51361        -9.32507
   O      -15.86228       -13.38602       -10.51532
   C      -16.72588       -13.74085        -8.28330
   C      -18.09569       -13.78964        -8.42434
   C      -18.87001       -13.97046        -7.27576
   C      -18.25264       -14.09527        -6.01680
   C      -16.86210       -14.06177        -5.88708
   C      -16.10156       -13.88642        -7.02852
   C      -14.65172       -13.83798        -7.22378
   C      -13.72222       -14.38542        -6.37526
   C      -12.38848       -14.62335        -6.76612
   N      -11.31483       -14.87648        -7.08411
   C      -14.01926       -14.85911        -5.08298
   N      -14.21521       -15.23361        -4.01582
   C      -19.05485       -14.25036        -4.85946
   N      -19.69385       -14.36728        -3.91662
   C      -20.28103       -14.02074        -7.37615
   N      -21.42141       -14.05785        -7.47374
   H       -1.23180         0.75003         3.68446
   H       -6.07218        -0.44654         3.85622
   H       -2.20838        -2.97539        -0.40346
   H       -6.39193        -5.68597         3.38786
   H       -7.57806        -7.40698        -1.19415
   H       -9.29438        -9.23521        -3.33673
   H       -6.56942        -8.01120        -6.33203
   H       -4.85517        -6.14855        -4.17566
   H       -8.31659        -9.53373        -7.19705
   H      -10.45836       -10.27613        -5.13114
   H       -8.28054       -10.79581       -11.05673
   H      -13.35877       -12.82181       -10.27119
   H      -18.55795       -13.68823        -9.39446
   H      -16.41746       -14.15887        -4.90898
*
