# ORCA input file
# SCF done       -205.468369682409          0.000494165587
! CAM-B3LYP def2-SVP def2/J RIJCOSX Grid4 TightSCF
%maxcore 5000
%tddft
    Mode sTDDFT
    Ethresh 5.0
    maxcore 5000
end

%pal
  nprocs 6
  end
* xyz 0 1
   C      -11.53184         1.59313         1.21078
   C      -12.55022         2.30419         0.59312
   C      -12.90864         2.04612        -0.72192
   C      -12.25155         1.07404        -1.46142
   C      -11.23268         0.35863        -0.85514
   C      -10.87284         0.61187         0.48742
   C       -9.79876        -0.29848         0.86709
   C       -9.11784        -0.27605         2.05636
   C       -9.36108         0.65361         3.08943
   N       -9.50143         1.37463         3.97179
   C       -8.05891        -1.13428         2.41910
   N       -7.19146        -1.78892         2.79108
   C       -9.61386        -1.21905        -0.24656
   C      -10.35618        -0.68030        -1.37517
   C      -10.08917        -0.89684        -2.70253
   C       -9.01939        -1.68330        -3.17580
   N       -8.13539        -2.26621        -3.61923
   C      -10.79500        -0.28480        -3.75764
   N      -11.34985         0.16258        -4.65773
   C       -8.93215        -2.40694        -0.15536
   C       -9.03589        -3.54368        -0.97715
   S       -7.79556        -4.77028        -0.87004
   C       -8.62044        -5.77604        -2.01092
   C       -9.81496        -5.19300        -2.41408
   C      -10.04196        -3.95303        -1.84610
   C       -8.08065        -7.01162        -2.43569
   C       -6.91420        -7.62549        -2.02017
   C       -6.67074        -8.83918        -2.65318
   C       -7.64265        -9.18419        -3.57376
   S       -8.88934        -7.97301        -3.64521
   C       -7.69753       -10.33111        -4.40302
   S       -6.47341       -11.56800        -4.31661
   C       -7.24435       -12.48278        -5.58324
   C       -8.38631       -11.83751        -6.02164
   C       -8.64172       -10.63977        -5.36190
   C       -6.72237       -13.70737        -6.07202
   C       -5.61672       -14.32619        -5.59288
   C       -5.07325       -15.53823        -6.08824
   C       -3.90976       -16.12429        -5.68160
   C       -3.64109       -17.33256        -6.41950
   C       -4.65820       -17.48567        -7.32231
   C       -5.61615       -16.33493        -7.24765
   C       -6.99071       -16.99944        -7.22445
   C       -6.92967       -18.04578        -8.33352
   S       -5.25610       -18.80980        -8.24371
   C       -2.54358       -18.21938        -6.20165
   S       -1.50183       -18.04835        -4.82334
   C       -0.56446       -19.43430        -5.30232
   C       -1.05209       -19.97112        -6.47672
   C       -2.16201       -19.29213        -6.97741
   C        0.52962       -19.89870        -4.52447
   C        1.41507       -20.91367        -4.83749
   C        2.36377       -21.14524        -3.84728
   C        2.22860       -20.31778        -2.74942
   S        0.89255       -19.21961        -2.96650
   C        3.00392       -20.30639        -1.56634
   S        4.33249       -21.40075        -1.35275
   C        4.66107       -20.76845         0.24282
   C        3.76375       -19.75687         0.55586
   C        2.84561       -19.49929        -0.44954
   C        5.74168       -21.28629         0.98137
   C        6.04650       -20.95637         2.27017
   C        7.11659       -21.49613         3.01339
   C        8.28503       -22.05717         2.55690
   C        9.10086       -22.98417         3.32913
   C        9.02330       -23.25118         4.67190
   C        8.14589       -22.64086         5.59195
   N        7.47104       -22.19714         6.40911
   C        9.85420       -24.17190         5.34439
   N       10.49374       -24.90100         5.95909
   C       10.02634       -23.61445         2.39507
   C        9.88579       -23.00023         1.13092
   C       10.63345       -23.43232         0.04822
   C       11.52690       -24.47648         0.23442
   C       11.67552       -25.07336         1.47775
   C       10.92926       -24.65151         2.56818
   C        8.90720       -21.92856         1.24693
   C        8.81203       -20.86128         0.39101
   C        9.52256       -20.75805        -0.82177
   N       10.05314       -20.62389        -1.83120
   C        8.05799       -19.69666         0.63879
   N        7.50559       -18.70210         0.79289
   H      -11.27113         1.80564         2.23432
   H      -13.07236         3.06781         1.14913
   H      -13.70967         2.60724        -1.17839
   H      -12.54232         0.87803        -2.48080
   H       -8.27300        -2.53033         0.69387
   H      -10.48304        -5.67391        -3.10649
   H      -10.93537        -3.37901        -2.01845
   H       -6.26945        -7.18907        -1.27797
   H       -5.81378        -9.46065        -2.46324
   H       -9.01140       -12.23484        -6.80163
   H       -9.48144        -9.99958        -5.56803
   H       -7.27160       -14.13881        -6.89755
   H       -5.08319       -13.86964        -4.76843
   H       -3.26832       -15.76536        -4.89617
   H       -5.52955       -15.72683        -8.15795
   H       -7.80801       -16.30285        -7.40632
   H       -7.14718       -17.47812        -6.25603
   H       -7.02985       -17.59049        -9.31952
   H       -7.66652       -18.83826        -8.22466
   H       -0.62056       -20.83416        -6.94955
   H       -2.67535       -19.56597        -7.88170
   H        1.37175       -21.46238        -5.76014
   H        3.13412       -21.89345        -3.91106
   H        3.79541       -19.21909         1.48532
   H        2.07580       -18.74995        -0.39228
   H        6.34023       -22.03392         0.47517
   H        5.37046       -20.31159         2.81297
   H        6.95471       -21.51954         4.08311
   H       10.52117       -22.98157        -0.92441
   H       12.11219       -24.82783        -0.60160
   H       12.37925       -25.88231         1.60153
   H       11.05522       -25.13210         3.52408
*
