# ORCA input file
# SCF done       -232.602599921152          0.000739011741
! CAM-B3LYP def2-SVP def2/J RIJCOSX Grid4 TightSCF
%maxcore 5000
%tddft
    Mode sTDDFT
    Ethresh 5.0
    maxcore 5000
end

%pal
  nprocs 6
  end
* xyz 0 1
   C        4.20554        -5.67027        -2.64472
   C        4.97394        -4.85371        -1.82032
   C        6.27853        -5.14522        -1.40001
   N        7.34527        -5.32556        -1.00779
   C        4.51882        -3.62450        -1.34796
   N        4.16489        -2.58846        -0.98287
   C        4.69461        -6.91317        -3.27610
   C        3.65411        -7.46283        -4.04482
   C        3.82003        -8.62304        -4.76390
   C        5.06064        -9.25488        -4.71529
   C        6.09574        -8.71616        -3.95834
   C        5.92263        -7.53752        -3.23197
  Cl        7.62581        -9.50429        -3.90713
  Cl        5.30442       -10.71014        -5.60337
   C        2.46643        -6.58070        -3.91543
   O        1.35132        -6.73264        -4.40761
   C        2.87882        -5.50875        -3.05580
   C        1.82537        -4.50862        -2.71205
   C        1.34666        -4.44528        -1.30295
   C        1.34227        -3.08618        -0.91837
   C        1.82918        -2.36034        -2.02431
   O        2.13623        -3.13556        -3.03151
   C        1.96074        -0.92903        -2.14825
   C        3.06337        -0.31088        -2.67348
   S        2.95911         1.39042        -2.58527
   C        1.40602         1.30042        -1.86721
   C        0.97968         0.01608        -1.69406
   C       -0.37800        -0.30768        -1.19195
   O       -0.93511         0.37735        -0.36183
   C       -0.99469        -1.52690        -1.77462
   C       -0.76590        -1.91068        -3.09524
   C       -1.30083        -3.09351        -3.57328
   C       -2.05630        -3.90378        -2.73991
   C       -2.31870        -3.50731        -1.43818
   C       -1.80468        -2.31649        -0.96155
   C        0.97242        -2.73013         0.38644
   C        0.57476        -3.72283         1.23604
   C        0.52336        -5.08723         0.84783
   C        0.94064        -5.43561        -0.45254
   C        0.05274        -6.06994         1.76691
   N       -0.15509        -7.39012         1.41078
   C       -0.62770        -8.06482         2.48632
   C       -1.06991        -9.30851         2.93074
   C       -1.41270        -9.13657         4.27367
   N       -1.18699        -7.82859         4.64551
   C       -0.71019        -7.14884         3.56866
   C       -0.29090        -5.90625         3.12091
   C       -1.93612       -10.07388         5.21431
   C       -2.24612       -11.35235         4.93362
   C       -2.77931       -12.28640         5.90395
   C       -3.69077       -13.29592         5.52643
   C       -4.22823       -13.34908         4.14808
   O       -4.25694       -12.40368         3.39272
   C       -4.79727       -14.67392         3.75132
   C       -6.11579       -14.93243         3.57437
   S       -6.40611       -16.57955         3.15216
   C       -4.73284       -16.92085         3.17962
   C       -3.97867       -15.82251         3.49932
   C       -2.51460       -15.73802         3.59798
   O       -1.97276       -14.72685         4.00533
   C       -1.73686       -16.93806         3.20137
   C       -0.70622       -17.36597         4.03421
   C        0.04430       -18.47661         3.69712
   C       -0.20902       -19.15111         2.51373
   C       -1.20959       -18.70784         1.66391
   C       -1.97634       -17.60830         2.00471
   C       -4.11561       -14.22527         6.47588
   C       -3.70097       -14.15509         7.78670
   C       -2.82709       -13.13887         8.18863
   C       -2.35188       -12.24576         7.22743
   C       -2.33803       -13.00786         9.54203
   C       -3.00390       -13.24414        10.69890
   C       -2.43250       -13.15767        12.04007
   C       -1.11119       -13.00232        12.36267
   C       -0.62237       -12.93882        13.68627
   N       -0.15791       -12.87622        14.73345
   C       -0.04332       -12.88438        11.44658
   N        0.88453       -12.78360        10.77771
   C       -3.52192       -13.31145        12.99600
   C       -4.72589       -13.49317        12.29388
   C       -4.47284       -13.46512        10.83908
   O       -5.30828       -13.54269         9.96857
   C       -5.93187       -13.66511        12.94348
   C       -5.93922       -13.66220        14.33187
   C       -4.74459       -13.48166        15.04164
   C       -3.53382       -13.30455        14.38326
  Cl       -4.76757       -13.47610        16.75792
  Cl       -7.41548       -13.88108        15.17876
   H        3.01470        -9.03217        -5.35288
   H        6.74794        -7.14780        -2.65871
   H        0.98714        -4.78970        -3.38344
   H        3.94978        -0.78944        -3.03868
   H        0.85996         2.19234        -1.63062
   H       -0.19182        -1.27528        -3.75415
   H       -1.12423        -3.38778        -4.59701
   H       -2.44863        -4.83808        -3.11182
   H       -2.92487        -4.12719        -0.79484
   H       -2.00036        -1.99134         0.04903
   H        1.00764        -1.70082         0.70549
   H        0.28132        -3.46445         2.23980
   H        0.96273        -6.46050        -0.78814
   H       -0.00855        -7.77012         0.49229
   H       -1.14687       -10.22066         2.37662
   H       -1.35931        -7.45802         5.56424
   H       -0.22198        -5.00057         3.68781
   H       -2.12315        -9.68133         6.20711
   H       -2.11825       -11.72643         3.93036
   H       -6.94100       -14.25898         3.69252
   H       -4.39361       -17.91642         2.97268
   H       -0.51343       -16.82346         4.94791
   H        0.83295       -18.81199         4.35371
   H        0.38058       -20.01542         2.24731
   H       -1.39225       -19.21978         0.73085
   H       -2.73527       -17.24651         1.32657
   H       -4.80011       -15.00831         6.18523
   H       -4.02779       -14.89918         8.49338
   H       -1.62720       -11.49985         7.52011
   H       -1.32087       -12.64110         9.61106
   H       -6.84259       -13.80104        12.38177
   H       -2.63741       -13.16473        14.96447
*
