# ORCA input file
# SCF done       -227.507600230811          0.000798325162
! CAM-B3LYP def2-SVP def2/J RIJCOSX Grid4 TightSCF
%maxcore 5000
%tddft
    Mode sTDDFT
    Ethresh 5.0
    maxcore 5000
end

%pal
  nprocs 6
  end
* xyz 0 1
   C       -6.52876        -6.38734        13.35750
   C       -5.72616        -5.28711        13.22052
   C       -5.92688        -4.07574        13.91505
   N       -6.05937        -3.06556        14.44270
   C       -4.55303        -5.26920        12.43720
   N       -3.56226        -5.22156        11.85998
   C       -7.58657        -6.55020        14.35175
   C       -7.86820        -7.92157        14.49794
   C       -8.80537        -8.37498        15.40387
   C       -9.48498        -7.43947        16.17426
   C       -9.21894        -6.07280        16.02521
   C       -8.26751        -5.61937        15.11827
  Cl      -10.07756        -4.92876        16.97399
  Cl      -10.65818        -7.96456        17.31199
   C       -7.04069        -8.70090        13.55106
   O       -6.98084        -9.90140        13.42568
   C       -6.32959        -7.68162        12.73518
   C       -5.71908        -8.04375        11.57674
   C       -5.33894        -7.20500        10.49159
   C       -6.01757        -6.10387        10.03682
   C       -5.41277        -5.66642         8.80708
   C       -5.83239        -4.55552         8.06454
   N       -6.18978        -3.65779         7.44428
   C       -4.37856        -6.51562         8.49030
   C       -4.27675        -7.50268         9.51932
   C       -3.29888        -8.46116         9.67234
   C       -2.38030        -8.98711         8.62858
   C       -1.45195        -9.76781         9.26891
   C       -1.75507        -9.78384        10.67267
   C       -2.89071        -9.03629        10.90643
   C       -0.99487       -10.46632        11.63168
   N       -0.36098       -11.03619        12.40060
   C       -2.57029        -8.80949         7.23476
   C       -1.67980        -9.18367         6.27894
   C       -1.83807        -9.02847         4.86531
   C       -0.84316        -9.52847         4.03070
   C       -0.94273        -9.41248         2.63933
   C       -0.11303        -9.83308         1.58931
   C        1.20985       -10.50562         1.59661
   C        2.33147        -9.43096         1.51969
   N        2.43970        -8.90894         0.17358
   C        1.48185       -11.43936         2.78330
   N        2.64286       -12.25810         2.47522
   C       -0.73329        -9.38553         0.36676
   C       -0.33543        -9.49679        -0.91759
   C       -1.15674        -8.95093        -2.02857
   C       -2.37488        -8.20022        -1.59965
   C       -2.76566        -8.11116        -0.31288
   C       -1.97505        -8.69024         0.70595
   C       -2.09974        -8.72537         2.08497
   C       -3.09769        -8.22106         2.94373
   C       -2.97142        -8.37514         4.28775
   C       -1.62955       -10.10419        -2.89009
   C       -1.40543       -10.19340        -4.20139
   C       -1.92383       -11.24152        -5.04435
   C       -3.05302       -11.97558        -4.84121
   C       -3.28496       -12.81049        -6.00504
   C       -4.37197       -13.67543        -6.16853
   N       -5.28293       -14.35770        -6.32244
   C       -2.31566       -12.55240        -6.93350
   C       -1.42554       -11.56029        -6.39061
   C       -0.30244       -11.04700        -7.00417
   C       -0.00462       -11.02378        -8.45227
   C        1.31699       -10.67399        -8.59313
   C        1.86693       -10.42995        -7.29093
   C        0.88016       -10.60521        -6.34239
   C        3.19662       -10.07449        -7.02935
   N        4.28317        -9.77933        -6.80481
   C       -0.93807       -11.15646        -9.51151
   C       -2.28568       -11.01242        -9.37183
   C       -3.20352       -11.29847       -10.40403
   C       -4.55488       -11.39531       -10.20848
   C       -5.55240       -11.76497       -11.19487
   C       -5.37783       -11.84614       -12.55116
   C       -6.39967       -12.19066       -13.46192
   N       -7.18212       -12.46322       -14.25588
   C       -4.17329       -11.57259       -13.23347
   N       -3.23377       -11.35967       -13.85833
   C       -6.80655       -12.00077       -10.48399
   C       -6.61940       -11.71128        -9.12097
   C       -5.23012       -11.27045        -8.89195
   O       -4.76040       -10.89232        -7.83832
   C       -7.63392       -11.85939        -8.19758
   C       -8.87071       -12.30545        -8.64531
   C       -9.06795       -12.59341       -10.00140
   C       -8.04150       -12.44460       -10.92776
  Cl      -10.60064       -13.14536       -10.54041
  Cl      -10.15871       -12.50456        -7.53103
   H       -9.00315        -9.42995        15.50962
   H       -8.08855        -4.56039        15.02525
   H       -5.59818        -9.11326        11.43157
   H       -6.89401        -5.65924        10.47219
   H       -3.68635        -6.37367         7.68294
   H       -0.64886       -10.32549         8.82609
   H       -3.31285        -8.82143        11.86908
   H       -3.51001        -8.36820         6.93985
   H       -0.74918        -9.63631         6.59511
   H        0.01088       -10.01027         4.47871
   H        1.29382       -11.10684         0.68438
   H        3.25179        -9.91640         1.87091
   H        2.08291        -8.61149         2.19771
   H        2.97652        -9.53879        -0.41213
   H        2.88815        -8.00218         0.16072
   H        0.57364       -12.02582         2.99846
   H        1.73571       -10.85180         3.66809
   H        2.43157       -12.91357         1.72993
   H        2.93086       -12.79400         3.28558
   H        0.57306       -10.00869        -1.19350
   H       -0.52685        -8.30359        -2.65278
   H       -2.95919        -7.76071        -2.39353
   H       -3.66656        -7.57977        -0.04368
   H       -3.95435        -7.71522         2.52413
   H       -3.73885        -7.98577         4.93715
   H       -2.20039       -10.85716        -2.36748
   H       -0.81946        -9.42991        -4.69643
   H       -3.70953       -11.93733        -3.99271
   H       -2.18106       -13.06153        -7.86802
   H        1.85175       -10.54218        -9.51521
   H        1.02688       -10.57330        -5.27951
   H       -0.52567       -11.35241       -10.49493
   H       -2.69504       -10.70434        -8.42222
   H       -2.79451       -11.52501       -11.38068
   H       -7.46448       -11.64179        -7.15519
   H       -8.22923       -12.68262       -11.96192
*
