# ORCA input file
# SCF done       -247.665065495476          0.000434939064
! CAM-B3LYP def2-SVP def2/J RIJCOSX Grid4 TightSCF
%maxcore 5000
%tddft
    Mode sTDDFT
    Ethresh 5.0
    maxcore 5000
end

%pal
  nprocs 6
  end
* xyz 0 1
   C        3.01563         3.00043        -0.96720
   C        1.66690         3.18588        -1.09841
   C        0.95603         2.87024        -2.27335
   N        0.32228         2.60698        -3.19430
   C        0.78751         3.62113        -0.08568
   N       -0.02063         3.93649         0.66599
   C        3.87867         2.41608        -1.98889
   C        5.07775         1.95943        -1.36853
   C        6.05524         1.32380        -2.07826
   C        5.89214         1.14812        -3.47126
   C        4.72940         1.66951        -4.10797
   C        3.71760         2.29319        -3.34312
   C        4.61292         1.55241        -5.50736
   C        5.57420         0.91533        -6.24239
   C        6.70403         0.37445        -5.61065
   C        6.86296         0.49547        -4.25666
   C        5.06813         2.35242         0.05455
   O        5.91584         2.14023         0.88855
   C        3.82560         3.15906         0.22854
   C        3.68450         3.97147         1.29981
   C        2.72195         5.05200         1.40746
   C        1.99060         5.25231         2.59439
   C        2.17412         4.24659         3.64666
   O        2.65410         3.15481         3.38513
   C        1.82118         4.62013         5.02896
   C        2.01664         5.86381         5.56142
   S        1.67321         5.92432         7.23972
   C        1.27692         4.25399         7.25081
   C        1.39166         3.68097         6.02202
   C        1.09917         2.24563         5.76817
   O        1.43697         1.38484         6.55128
   C        0.35779         1.96019         4.52010
   C       -0.57130         2.85984         4.00126
   C       -1.25965         2.55259         2.84380
   C       -1.00971         1.35969         2.18400
   C       -0.08738         0.46135         2.69527
   C        0.58369         0.75125         3.86750
   C        1.04970         6.27975         2.64541
   C        0.83501         7.09997         1.56093
   C        1.57383         6.93182         0.38133
   C        2.52455         5.90774         0.33790
   C        1.31622         7.69161        -0.81238
   S        1.52252         6.89588        -2.33932
   C        1.02528         8.28345        -3.24197
   C        0.68728         9.33111        -2.38208
   C        0.86564         8.99756        -1.00070
   C        0.63186         9.99579        -0.02711
   C        0.16689        11.22595        -0.38564
   C       -0.08967        12.30016         0.62143
   C       -0.10747        11.51150        -1.76247
   O       -0.61861        12.74932        -1.99473
   C       -0.89401        13.11445        -3.32722
   C        0.15485        10.58790        -2.73788
   C        1.01090         8.18239        -4.66483
   C        1.12867         9.19887        -5.53821
   C        1.05495         8.98043        -6.96742
   C        0.46830         9.92291        -7.83542
   C       -0.12941        11.16230        -7.29821
   O       -0.56755        11.28589        -6.17476
   C       -0.18588        12.30816        -8.26258
   C       -1.21217        12.63816        -9.08154
   S       -0.86913        14.04767       -10.02012
   C        0.66343        14.21179        -9.28428
   C        0.90353        13.23203        -8.35828
   C        2.10800        13.03035        -7.54202
   O        2.28769        11.97636        -6.95878
   C        3.08255        14.14471        -7.46850
   C        4.44202        13.84296        -7.50424
   C        5.38108        14.85379        -7.42714
   C        4.97177        16.17006        -7.28570
   C        3.62134        16.47281        -7.21556
   C        2.67639        15.46753        -7.31111
   C        0.43516         9.65968        -9.20779
   C        0.90902         8.47303        -9.71756
   C        1.46958         7.51073        -8.86315
   C        1.58581         7.81328        -7.51088
   C        1.95011         6.26494        -9.41177
   C        1.98891         5.05656        -8.79682
   C        2.58389         3.84531        -9.35325
   C        3.42834         3.77496       -10.42917
   C        4.04051         2.58310       -10.87240
   N        4.57518         1.65117       -11.27682
   C        3.84114         4.86353       -11.22650
   N        4.23400         5.69032       -11.92012
   C        2.21390         2.72619        -8.49907
   C        1.45173         3.22370        -7.40354
   C        1.28537         4.67822        -7.53072
   O        0.65496         5.38962        -6.78047
   C        0.99172         2.40865        -6.40795
   C        1.29467         1.02959        -6.45889
   C        2.03391         0.51613        -7.56468
   C        2.48119         1.38388        -8.58711
   C        2.33244        -0.86096        -7.59781
   C        1.93447        -1.68617        -6.58149
   C        1.21722        -1.17573        -5.48881
   C        0.89989         0.15415        -5.42881
   H        6.94896         0.97039        -1.58588
   H        2.84749         2.67768        -3.85247
   H        3.74578         1.97932        -5.98631
   H        5.47011         0.82832        -7.31377
   H        7.45255        -0.12912        -6.20367
   H        7.73883         0.09469        -3.76770
   H        4.43817         3.87301         2.07279
   H        2.38697         6.73976         5.06579
   H        0.95990         3.78034         8.15856
   H       -0.77384         3.78774         4.51791
   H       -1.98278         3.24720         2.44658
   H       -1.53610         1.13399         1.26822
   H        0.10606        -0.46860         2.18044
   H        1.30473         0.06457         4.28415
   H        0.43615         6.39410         3.52597
   H        0.04628         7.83411         1.59346
   H        3.11751         5.77993        -0.55742
   H        0.84248         9.78555         1.01006
   H        0.49179        13.18726         0.37575
   H        0.16972        11.96616         1.62251
   H       -1.13984        12.58738         0.59870
   H       -1.28876        14.12820        -3.27834
   H       -1.63566        12.45369        -3.78400
   H        0.01139        13.10359        -3.94152
   H       -0.06368        10.78825        -3.77124
   H        0.89164         7.17554        -5.04779
   H        1.27662        10.21399        -5.20974
   H       -2.15272        12.13832        -9.20168
   H        1.31625        15.00578        -9.58873
   H        4.74399        12.81102        -7.60415
   H        6.43321        14.61541        -7.46998
   H        5.70511        16.95979        -7.21937
   H        3.30346        17.49641        -7.08385
   H        1.62549        15.70284        -7.22771
   H        0.00117        10.38650        -9.87872
   H        0.83824         8.27045       -10.77605
   H        2.13273         7.14988        -6.86314
   H        2.28037         6.32269       -10.44229
   H        0.42597         2.80783        -5.57910
   H        3.03157         0.96362        -9.41377
   H        2.88905        -1.25010        -8.43788
   H        2.17324        -2.73879        -6.61342
   H        0.91657        -1.84293        -4.69494
   H        0.35400         0.56235        -4.59159
*
