# ORCA input file
# SCF done       -197.446102563858          0.000813063632
! CAM-B3LYP def2-SVP def2/J RIJCOSX Grid4 TightSCF
%maxcore 5000
%tddft
    Mode sTDDFT
    Ethresh 5.0
    maxcore 5000
end

%pal
  nprocs 6
  end
* xyz 0 1
   C        2.70983         8.25515        -2.16810
   C        1.50386         8.22678        -1.52847
   C        0.50862         9.21151        -1.69925
   N       -0.32690         9.98860        -1.81828
   C        1.08700         7.15740        -0.70935
   N        0.69204         6.28258        -0.08035
   C        3.10188         9.19381        -3.21162
   C        4.16016         8.61183        -3.97074
   C        4.71499         9.26050        -5.03677
   C        4.24168        10.54552        -5.38490
   C        3.19762        11.13880        -4.61730
   C        2.63208        10.43993        -3.52603
   C        2.74491        12.42679        -4.96835
   C        3.29306        13.09746        -6.02742
   C        4.31974        12.51227        -6.78361
   C        4.78322        11.26382        -6.46952
   C        4.51500         7.30635        -3.38856
   O        5.30602         6.48768        -3.80334
   C        3.73171         7.22288        -2.12531
   C        4.10860         6.38434        -1.13482
   C        3.70018         6.42591         0.24351
   C        3.50245         7.57781         0.98406
   C        3.68773         8.98958         0.61436
   O        2.88005         9.83632         0.92154
   C        4.98510         9.33663        -0.08212
   S        2.99075         7.21717         2.59370
   C        3.09177         5.53625         2.29130
   C        3.46231         5.24181         1.01022
   C        3.52846         3.89657         0.44869
   C        3.05158         3.66627        -0.81558
   C        3.08529         2.36306        -1.36977
   C        2.66129         1.83540        -2.58139
   C        2.08274         2.44119        -3.82430
   C        1.48218         3.85807        -3.66143
   N        2.40343         4.97936        -3.77365
   C        3.13188         2.39463        -4.95795
   N        2.47932         2.52149        -6.25079
   C        2.90662         0.40774        -2.51845
   C        2.60160        -0.57959        -3.38219
   C        2.93286        -1.99926        -3.08361
   C        3.63714        -2.22681        -1.78426
   C        3.91026        -1.22786        -0.92344
   C        3.54054         0.10129        -1.23436
   C        3.63267         1.29217        -0.53884
   C        4.11738         1.56791         0.75780
   C        4.06203         2.83597         1.24062
   C        3.78684        -2.57171        -4.18499
   C        3.45117        -3.63610        -4.90025
   C        4.27841        -4.20816        -5.95807
   C        5.56604        -4.66427        -5.79769
   C        6.34940        -4.77028        -4.56422
   O        5.89806        -4.47576        -3.47913
   C        7.75221        -5.29725        -4.74100
   S        6.19955        -5.27922        -7.30698
   C        4.75423        -4.93496        -8.12051
   C        3.79790        -4.36518        -7.30611
   C        2.49838        -3.88652        -7.65431
   C        1.74458        -3.98960        -8.78331
   C        0.41364        -3.40202        -8.90604
   C       -0.19786        -2.54095        -8.02868
   C       -1.48416        -1.99574        -8.23010
   N       -2.52396        -1.51820        -8.32511
   C        0.32835        -2.05701        -6.81442
   N        0.66392        -1.61494        -5.80737
   C       -0.16736        -3.86631       -10.15775
   C        0.79407        -4.67082       -10.83129
   C        2.02520        -4.74674       -10.02985
   O        3.04347        -5.32556       -10.35185
   C        0.53378        -5.25685       -12.03634
   C       -0.73142        -5.06673       -12.63516
   C       -1.70252        -4.26613       -11.96718
   C       -1.40105        -3.66844       -10.72224
   C       -2.96439        -4.08712       -12.56996
   C       -3.25464        -4.67035       -13.77337
   C       -2.29733        -5.45789       -14.43001
   C       -1.06199        -5.65120       -13.87317
   H        5.51189         8.80341        -5.60483
   H        1.85118        10.91248        -2.95075
   H        1.95285        12.87154        -4.38422
   H        2.93867        14.08329        -6.28875
   H        4.74186        13.05601        -7.61556
   H        5.57410        10.80860        -7.04791
   H        4.84684         5.62960        -1.38862
   H        4.80451        10.06692        -0.86821
   H        5.49696         8.46683        -0.47946
   H        5.62381         9.81113         0.66335
   H        2.83712         4.84554         3.07047
   H        2.59144         4.48002        -1.34957
   H        1.26353         1.78757        -4.14605
   H        0.99190         3.91787        -2.68554
   H        0.70628         4.00047        -4.41766
   H        3.26841         4.76951        -3.28738
   H        2.64889         5.14326        -4.74436
   H        3.63115         1.42249        -4.94145
   H        3.90639         3.15979        -4.77469
   H        2.02868         3.42613        -6.33878
   H        3.15852         2.44095        -6.99926
   H        2.08980        -0.40084        -4.31717
   H        1.98516        -2.55795        -3.07842
   H        3.93737        -3.24356        -1.58600
   H        4.40998        -1.42964         0.01305
   H        4.52138         0.76303         1.35420
   H        4.43180         3.06950         2.22789
   H        4.73069        -2.07105        -4.34538
   H        2.49475        -4.12047        -4.74213
   H        7.72173        -6.30911        -5.14050
   H        8.25913        -5.30412        -3.77989
   H        8.30234        -4.67224        -5.44134
   H        4.65730        -5.16171        -9.16462
   H        2.04079        -3.34389        -6.83721
   H        1.28379        -5.86151       -12.52447
   H       -2.16096        -3.07230       -10.24337
   H       -3.69802        -3.47924       -12.06106
   H       -4.22433        -4.52775       -14.22627
   H       -2.54348        -5.91110       -15.37864
   H       -0.32069        -6.25690       -14.37379
*
