# ORCA input file
# SCF done       -165.534316604628          0.000374053384
! CAM-B3LYP def2-SVP def2/J RIJCOSX Grid4 TightSCF
%maxcore 5000
%tddft
    Mode sTDDFT
    Ethresh 5.0
    maxcore 5000
end

%pal
  nprocs 6
  end
* xyz 0 1
   C        0.02450        -6.00406         5.88187
   N        0.72590        -6.30162         4.82276
   N        0.17437        -6.54761         3.66308
   C       -1.13178        -6.51627         3.46564
   C       -1.99964        -6.20058         4.54963
   C       -1.38353        -5.93273         5.81589
   N       -2.28315        -5.64848         6.75774
   S       -3.74784        -5.71458         6.10587
   N       -3.32487        -6.10457         4.60395
   C       -1.60367        -6.81091         2.14980
   C       -2.90795        -6.86244         1.69886
   C       -2.96341        -7.19570         0.34685
   C       -1.68491        -7.39272        -0.21825
   S       -0.42401        -7.17104         0.90818
   C       -1.84431        -7.73413        -1.58498
   C       -3.22452        -7.75601        -1.88034
   C       -3.96867        -7.41344        -0.67660
   C       -5.32304        -7.31766        -0.54348
   C       -6.19899        -7.55549        -1.62362
   N       -6.91149        -7.74708        -2.50138
   C       -5.93892        -6.97443         0.67879
   N       -6.45067        -6.69733         1.66666
   C       -3.48759        -8.09568        -3.20044
   C       -2.31433        -8.32851        -3.90872
   S       -0.86743        -8.12109        -2.93112
   C       -2.16880        -8.70478        -5.25410
   C       -0.94444        -8.90563        -5.90102
   C       -1.08933        -9.30443        -7.27076
   N       -0.02785        -9.54100        -8.03997
   C        1.15553        -9.38746        -7.48348
   C        2.33950        -9.64634        -8.33967
   O        2.24411        -9.99109        -9.49892
   C        3.64071        -9.45226        -7.67769
   C        3.77585        -9.07739        -6.40119
   C        2.64003        -8.81400        -5.50140
   O        2.79014        -8.47959        -4.34493
   C        1.30034        -8.98711        -6.11536
   N        0.25716        -8.75461        -5.34630
   C       -2.42480        -9.41049        -7.67464
   S       -3.48275        -9.00694        -6.35371
   C       -2.84790        -9.80249        -8.95528
   C       -4.14721        -9.93695        -9.43080
   C       -4.16261       -10.36624       -10.75093
   C       -2.86783       -10.55845       -11.27949
   S       -1.62966       -10.20725       -10.15723
   C       -2.99363       -11.00654       -12.61861
   C       -4.36651       -11.09637       -12.93453
   C       -5.14283       -10.69437       -11.77635
   C       -6.50143       -10.63477       -11.66770
   C       -7.13893       -10.22324       -10.47824
   N       -7.65843        -9.88878        -9.51232
   C       -7.35984       -10.97782       -12.73379
   N       -8.06734       -11.25475       -13.59250
   C       -4.59060       -11.54131       -14.23600
   C       -3.40137       -11.78470       -14.89464
   S       -1.98637       -11.46486       -13.91607
   C       -3.20743       -12.25458       -16.22978
   N       -1.96211       -12.40948       -16.64334
   N       -1.65673       -12.83466       -17.84155
   C       -2.56427       -13.14268       -18.72675
   C       -3.93714       -13.02661       -18.42043
   C       -4.28415       -12.55952       -17.11041
   N       -5.60023       -12.49032       -16.93270
   S       -6.32457       -12.96800       -18.28675
   N       -5.01603       -13.28434       -19.15979
   H        0.56598        -5.81767         6.79596
   H       -3.74896        -6.66609         2.33924
   H       -4.46201        -8.17788        -3.64787
   H        4.50312        -9.63684        -8.30396
   H        4.75197        -8.94644        -5.95389
   H       -5.01143        -9.72915        -8.82551
   H       -5.54907       -11.68965       -14.69996
   H       -2.21853       -13.48553       -19.68923
*
