# ORCA input file
# SCF done       -208.896848477461          0.000548616112
! CAM-B3LYP def2-SVP def2/J RIJCOSX Grid4 TightSCF
%maxcore 5000
%tddft
    Mode sTDDFT
    Ethresh 5.0
    maxcore 5000
end

%pal
  nprocs 6
  end
* xyz 0 1
   C       -3.62725         0.80361        -3.95241
   C       -4.14110         0.86889        -5.22044
   C       -4.08913         2.02031        -6.03656
   N       -4.07577         2.91483        -6.75518
   C       -4.82420        -0.16743        -5.89369
   N       -5.40685        -0.94658        -6.50383
   C       -3.01467         1.91922        -3.23612
   C       -2.73947         1.51257        -1.91973
   C       -2.16747         2.35887        -0.99132
   C       -1.87008         3.64380        -1.41947
   C       -2.12454         4.07258        -2.71480
   C       -2.70092         3.21151        -3.63551
   F       -1.31405         4.50609        -0.55540
   C       -3.14298         0.10331        -1.73281
   O       -3.02255        -0.53771        -0.71261
   C       -3.65859        -0.33968        -3.05169
   C       -3.99347        -1.60777        -3.44171
   C       -4.15060        -2.79529        -2.70006
   C       -4.20475        -3.05397        -1.33364
   C       -4.43193        -4.39461        -1.06517
   C       -4.54986        -5.18638        -2.23498
   S       -4.39964        -4.26633        -3.65448
   C       -4.76603        -6.52861        -1.85761
   C       -4.78823        -6.59368        -0.44617
   C       -4.59172        -5.25690         0.09447
   C       -4.59000        -4.89886         1.40955
   C       -4.76198        -5.84892         2.44014
   N       -4.90007        -6.61545         3.28144
   C       -4.44368        -3.56337         1.84585
   N       -4.34698        -2.48855         2.23115
   C       -5.00654        -7.87738         0.02764
   C       -5.15443        -8.79586        -1.00808
   S       -5.01527        -8.05378        -2.59293
   C       -5.41537       -10.18302        -0.87894
   C       -5.57943       -11.00256        -2.01945
   C       -5.90258       -12.40116        -1.92266
   N       -6.05501       -13.12167        -3.03825
   C       -5.90563       -12.55599        -4.21176
   C       -5.58183       -11.16417        -4.30821
   N       -5.43313       -10.44147        -3.22431
   C       -5.41086       -10.55240        -5.57519
   N       -5.27327       -10.08315        -6.61049
   C       -6.05922       -13.34325        -5.38014
   N       -6.17609       -13.96020        -6.33769
   C       -6.07017       -13.05634        -0.68067
   C       -5.86676       -12.24929         0.46381
   C       -5.54959       -10.84162         0.36659
   N       -5.41553       -10.28988         1.57328
   S       -5.65621       -11.39958         2.70246
   N       -5.94618       -12.64299         1.73546
   C       -6.43974       -14.42294        -0.62172
   C       -6.61741       -15.19039         0.52656
   C       -7.02164       -16.48148         0.22791
   C       -7.16009       -16.70323        -1.16061
   S       -6.76896       -15.32378        -2.09243
   C       -7.60956       -18.02716        -1.35147
   C       -7.74328       -18.65470        -0.09313
   C       -7.37409       -17.70121         0.93942
   C       -7.36279       -17.90026         2.28804
   C       -7.71483       -19.13827         2.86772
   N       -7.99149       -20.14630         3.33786
   C       -6.98922       -16.88358         3.19342
   N       -6.68383       -16.06300         3.93334
   C       -8.19249       -19.96605        -0.19127
   C       -8.45340       -20.33437        -1.50311
   S       -8.06029       -19.04467        -2.63868
   C       -8.90827       -21.60390        -1.93373
   C       -9.53419       -21.94138        -3.09218
   C      -10.19814       -21.15340        -4.11177
   C      -10.89043       -19.98986        -3.90855
   C      -11.62269       -19.32483        -4.91422
   N      -12.22124       -18.73971        -5.69873
   C      -11.02759       -19.37893        -2.64432
   N      -11.19200       -18.87582        -1.62581
   C      -10.26912       -21.97850        -5.31493
   C       -9.90770       -23.29752        -4.98019
   C       -9.52030       -23.35944        -3.55338
   O       -9.20871       -24.32831        -2.90506
   C       -9.92925       -24.31595        -5.91187
   C      -10.31453       -23.97667        -7.20079
   C      -10.66031       -22.68119        -7.56002
   C      -10.64329       -21.66824        -6.61392
   F      -10.35150       -24.93379        -8.13947
   H       -1.96475         2.03545         0.01715
   H       -1.86771         5.08257        -2.99297
   H       -2.88923         3.55633        -4.63854
   H       -4.16304        -1.75001        -4.50280
   H       -4.07286        -2.28532        -0.59370
   H       -5.06499        -8.17138         1.05940
   H       -6.45619       -14.78709         1.50941
   H       -8.36784       -20.62609         0.63909
   H       -8.66574       -22.43495        -1.27753
   H       -9.66204       -25.32756        -5.65143
   H      -10.94177       -22.47723        -8.58106
   H      -10.90554       -20.66236        -6.89920
*
