# ORCA input file
# SCF done       -204.340720017578          0.000480799929
! CAM-B3LYP def2-SVP def2/J RIJCOSX Grid4 TightSCF
%maxcore 5000
%tddft
    Mode sTDDFT
    Ethresh 5.0
    maxcore 5000
end

%pal
  nprocs 6
  end
* xyz 0 1
   C       -2.79043        -8.44452         8.41770
   O       -3.76629        -9.02185         7.99218
   C       -2.37396        -8.39959         9.83568
   C       -1.22370        -7.60522         9.97207
   C       -0.65324        -7.43817        11.22370
   C       -1.24473        -8.06545        12.31443
   C       -2.39244        -8.84852        12.16817
   C       -2.96665        -9.02024        10.91560
  Br       -3.17600        -9.68744        13.66865
  Br       -0.46168        -7.84199        14.02018
   C       -0.85321        -7.08815         8.65673
   C        0.13878        -6.17240         8.42697
   C        0.97078        -5.64368         9.43873
   N        1.67809        -5.18200        10.21516
   C        0.46333        -5.58827         7.18257
   N        0.78732        -5.04723         6.22305
   C       -1.76697        -7.66561         7.68149
   C       -1.59309        -7.55825         6.32723
   C       -2.36889        -8.02072         5.24673
   C       -3.61618        -8.61839         5.15821
   C       -3.99870        -8.88930         3.85145
  Cl       -5.49808        -9.62177         3.46143
   C       -3.05818        -8.51392         2.88141
   S       -1.68314        -7.79408         3.65134
   C       -3.14440        -8.68336         1.48452
   C       -2.19753        -8.33705         0.51794
  Cl       -0.70650        -7.58325         0.89308
   C       -2.56682        -8.66334        -0.78029
   C       -3.81277        -9.26506        -0.84937
   S       -4.53369        -9.41719         0.72346
   C       -4.48193        -9.74641        -2.00329
   C       -5.76790       -10.32180        -1.89222
   C       -6.47580       -10.85091        -3.02497
   N       -7.69130       -11.37958        -2.85449
   C       -8.23241       -11.41690        -1.66126
   C       -7.52309       -10.89609        -0.53010
   N       -6.33096       -10.37267        -0.68127
   C       -8.09411       -10.93885         0.76647
   N       -8.57434       -10.98528         1.80481
   C       -9.52437       -11.98034        -1.51202
   N      -10.56692       -12.43158        -1.36879
   C       -5.93235       -10.84524        -4.32921
   C       -4.65129       -10.25860        -4.45050
   C       -3.94197        -9.71484        -3.31015
   N       -2.75766        -9.21604        -3.66544
   S       -2.55243        -9.40268        -5.24413
   N       -3.94418       -10.12665        -5.57302
   C       -6.65928       -11.41141        -5.40699
   C       -6.26677       -11.51856        -6.73116
   C       -7.21809       -12.14519        -7.52500
  Cl       -6.99306       -12.41160        -9.20233
   C       -8.37161       -12.52752        -6.83832
   S       -8.23786       -12.09040        -5.15408
   C       -9.51834       -13.16053        -7.35779
   C      -10.71137       -13.46681        -6.69682
  Cl      -10.97862       -13.11836        -5.04094
   C      -11.66032       -14.08666        -7.50285
   C      -11.24219       -14.25974        -8.81148
   S       -9.61455       -13.67140        -9.01349
   C      -11.96515       -14.92689        -9.82510
   C      -11.70813       -15.01735       -11.15926
   C      -12.28444       -16.15002       -11.93505
   O      -13.19023       -16.87572       -11.60439
   C      -11.45543       -16.22707       -13.15958
   C      -10.55411       -15.14603       -13.18840
   C      -10.81623       -14.28661       -12.03602
   C      -10.51546       -12.95377       -11.96126
   C      -11.07805       -12.09118       -10.99542
   N      -11.56547       -11.35380       -10.26411
   C       -9.69597       -12.28267       -12.89190
   N       -9.01448       -11.70423       -13.61102
   C       -9.64501       -15.03069       -14.22529
   C       -9.65326       -15.99707       -15.22501
   C      -10.56235       -17.05762       -15.19976
   C      -11.47376       -17.17870       -14.15810
  Br      -10.56060       -18.34816       -16.57977
  Br       -8.40071       -15.85611       -16.63248
   H        0.23312        -6.84490        11.37819
   H       -3.85178        -9.62364        10.78620
   H       -0.69330        -7.04720         6.00409
   H       -4.22039        -8.85321         6.01514
   H       -1.96122        -8.47747        -1.64745
   H       -5.32310       -11.15246        -7.09008
   H      -12.63227       -14.38009        -7.15099
   H      -12.79381       -15.53626        -9.47646
   H       -8.92907       -14.22557       -14.27090
   H      -12.17764       -17.99594       -14.12901
*
