# ORCA input file
# SCF done       -122.402217504055          0.000307602474
! CAM-B3LYP def2-SVP def2/J RIJCOSX Grid4 TightSCF
%maxcore 5000
%tddft
    Mode sTDDFT
    Ethresh 5.0
    maxcore 5000
end

%pal
  nprocs 6
  end
* xyz 0 1
   C        0.30860         0.74369         4.27187
   O       -0.43623         0.10145         5.18291
   C       -0.68647         0.97289         6.17682
   C       -0.11103         2.17332         5.91898
   C        0.55279         2.03985         4.66001
   C        1.30591         3.06743         3.99696
   C        1.91753         2.94179         2.80250
   C        2.67710         3.98629         2.20226
   C        3.31817         3.86619         1.01703
   C        4.11515         4.89242         0.43810
   O        4.25081         6.08195         1.07626
   C        5.08682         6.83824         0.34541
   C        5.51328         6.17513        -0.75807
   C        4.88646         4.89459        -0.72666
   C        5.00897         3.83525        -1.67976
   C        5.95797         3.78637        -2.63834
   C        6.11222         2.75352        -3.61746
   C        5.15437         1.88599        -4.00765
   C        5.34769         0.85386        -4.98599
   C        6.61834         0.36428        -5.38114
   C        6.55918        -0.62261        -6.31729
   S        7.93832        -1.44850        -6.99941
   C        7.12703        -2.62268        -8.11995
   S        4.92240        -0.98651        -6.77074
   C        4.30543         0.21422        -5.65803
   C        2.91505         0.45813        -5.57961
   C        1.98760        -0.14911        -6.36184
   C        0.59601         0.11095        -6.30565
   O        0.09579         0.97370        -5.38529
   C       -1.23355         1.04128        -5.58029
   C       -1.62330         0.24841        -6.60869
   C       -0.44266        -0.37871        -7.10632
   C       -0.31566        -1.29557        -8.19036
   C       -1.31928        -1.68053        -9.01215
   C       -1.13234        -2.58790       -10.08866
   C       -2.11254        -2.94906       -10.95094
   C       -1.92644        -3.85107       -12.03371
   O       -0.71564        -4.43289       -12.22688
   C       -0.81828        -5.22705       -13.30577
   C       -2.06756        -5.18353       -13.83245
   C       -2.81776        -4.28687       -13.01724
   C       -4.18711        -3.89667       -13.16404
   C       -5.01465        -4.32567       -14.13446
   C       -6.38305        -3.90313       -14.24775
   C       -7.21156        -4.32099       -15.20381
   H        0.60375         0.18803         3.40463
   H       -1.27719         0.62152         6.99950
   H       -0.14335         3.05127         6.53101
   H        1.37473         4.00816         4.52784
   H        1.85188         2.00772         2.26106
   H        2.75107         4.92026         2.74297
   H        3.25964         2.94098         0.46186
   H        5.29711         7.82389         0.71213
   H        6.17408         6.55121        -1.51125
   H        4.30145         3.02351        -1.58535
   H        6.70529         4.56822        -2.66559
   H        7.07803         2.71633        -4.10352
   H        4.16080         1.97673        -3.59304
   H        7.55020         0.70574        -4.97041
   H        7.92068        -3.19191        -8.59259
   H        6.55689        -2.07753        -8.86676
   H        6.47876        -3.28094        -7.54881
   H        2.58517         1.19386        -4.86026
   H        2.30487        -0.87209        -7.09998
   H       -1.78709         1.68517        -4.92509
   H       -2.62286         0.11782        -6.96787
   H        0.67405        -1.69751        -8.36314
   H       -2.31534        -1.28406        -8.87079
   H       -0.14251        -3.00309       -10.22338
   H       -3.10615        -2.53970       -10.83881
   H        0.06104        -5.76789       -13.59645
   H       -2.41486        -5.71981       -14.69086
   H       -4.56435        -3.19847       -12.42790
   H       -4.66237        -5.02219       -14.88232
   H       -6.73266        -3.20348       -13.49870
   H       -6.89111        -5.01645       -15.96200
   H       -8.23219        -3.98506       -15.26229
*
