# ORCA input file
# SCF done       -166.177391460269          0.000878302202
! CAM-B3LYP def2-SVP def2/J RIJCOSX Grid4 TightSCF
%maxcore 5000
%tddft
    Mode sTDDFT
    Ethresh 5.0
    maxcore 5000
end

%pal
  nprocs 6
  end
* xyz 0 1
   C        5.00048        -6.27748         9.43146
   C        5.06748        -6.15114         8.07652
   C        5.64632        -7.30263         7.45625
   C        6.02102        -8.26516         8.33534
   S        5.65939        -7.78142         9.94954
   C        5.61653        -7.12549         6.00446
   O        6.07961        -7.87200         5.16299
   C        4.89744        -5.85630         5.77195
   C        4.64171        -5.21047         7.04237
   C        4.20266        -3.94690         7.35510
   N        4.40788        -3.43603         8.70713
   O        3.44348        -2.98891         9.27668
   O        5.52595        -3.51533         9.15989
   N        3.57148        -2.97935         6.52618
   O        3.74438        -1.81377         6.81641
   O        2.89201        -3.36588         5.59111
   C        4.51056        -5.42154         4.51949
   C        4.81053        -5.90882         3.24926
   S        5.94691        -7.19506         2.83204
   C        5.63043        -6.95686         1.17782
   C        4.67112        -5.94812         0.93933
   C        4.22200        -5.35609         2.09214
   C        4.46086        -5.87052        -0.51815
   O        3.73272        -5.14977        -1.15179
   C        5.38503        -6.92986        -1.08362
   C        6.05014        -7.54048        -0.04535
   C        5.43226        -7.14713        -2.47773
   C        6.23510        -8.04712        -3.10621
   C        6.25467        -8.27254        -4.50546
   C        5.48083        -7.71271        -5.49390
   C        5.77292        -8.19584        -6.78573
   C        6.81967        -9.16132        -6.77469
   S        7.39851        -9.43817        -5.15870
   C        7.27592        -9.77049        -7.92084
   C        6.67438        -9.42128        -9.13120
   C        5.62395        -8.46082        -9.14177
   C        5.17063        -7.84740        -7.99911
   S        5.02489        -8.19791       -10.75774
   C        6.17068        -9.36171       -11.40333
   C        6.95930        -9.90775       -10.42672
   C        6.18977        -9.63986       -12.79534
   S        7.35192       -10.77735       -13.45676
   C        6.71627       -10.54142       -15.02572
   C        5.66156        -9.62932       -15.03275
   C        5.36224        -9.11627       -13.77579
   C        5.18509        -9.51090       -16.42624
   O        4.28992        -8.82313       -16.84970
   C        6.07986       -10.45577       -17.20785
   C        6.96835       -11.03578       -16.33641
   C        5.99583       -10.69884       -18.59716
   C        5.08966       -10.11659       -19.42850
   C        5.00153       -10.37843       -20.81467
   S        6.08202       -11.51292       -21.57589
   C        5.31075       -11.23382       -23.09454
   N        5.77751       -11.92943       -24.21933
   O        5.22181       -11.72187       -25.28219
   O        6.71041       -12.69483       -24.04712
   C        4.28524       -10.32527       -23.02797
   C        4.09128        -9.82204       -21.73110
   C        3.08337        -8.84622       -21.37217
   C        2.16496        -8.35726       -22.20113
   H        4.61129        -5.61473        10.17805
   H        6.47231        -9.21733         8.14140
   H        3.82240        -4.58368         4.49155
   H        3.49965        -4.56103         2.14401
   H        6.77165        -8.33275        -0.12419
   H        4.75967        -6.52598        -3.05419
   H        6.91832        -8.64720        -2.52072
   H        4.71770        -6.98005        -5.30456
   H        8.07110       -10.49815        -7.89343
   H        4.37452        -7.12081        -8.02684
   H        7.71964       -10.64073       -10.63186
   H        4.58629        -8.40289       -13.56396
   H        7.73011       -11.74951       -16.59234
   H        6.70929       -11.40727       -19.00409
   H        4.38541        -9.41336       -19.01042
   H        3.71464       -10.04759       -23.89475
   H        3.09817        -8.50505       -20.34748
   H        2.08869        -8.65656       -23.23177
   H        1.44644        -7.63116       -21.86399
*
