# ORCA input file
# SCF done       -183.417261328665          0.000761669855
! CAM-B3LYP def2-SVP def2/J RIJCOSX Grid4 TightSCF
%maxcore 5000
%tddft
    Mode sTDDFT
    Ethresh 5.0
    maxcore 5000
end

%pal
  nprocs 6
  end
* xyz 0 1
   C       -0.92865         0.39384        -2.15892
   C       -0.86876        -0.10819        -3.43443
   C        0.11917        -1.00819        -3.88292
   N        0.90348        -1.73427        -4.30185
   C       -1.80956         0.17551        -4.44629
   N       -2.55481         0.34263        -5.30390
   C       -0.05883         0.02221        -1.04986
   C       -0.53355         0.65181         0.12730
   C        0.06865         0.48586         1.35050
   C        1.19303        -0.34390         1.41588
   C        1.66395        -0.96389         0.23361
   C        1.05479        -0.79465        -1.00415
   S        3.06817        -1.93906         0.53947
   C        3.00296        -1.51065         2.22848
   C        1.98341        -0.67871         2.54891
  Br        4.28790        -2.19905         3.40730
   C       -1.71722         1.47189        -0.19241
   O       -2.31977         2.19840         0.57135
   C       -1.93077         1.30538        -1.65057
   C       -2.76645         2.08389        -2.41203
   C       -3.84834         2.84814        -1.94392
   S       -4.27401         4.30774        -2.78352
   C       -5.51642         4.70041        -1.63981
   C       -5.65239         3.68755        -0.66500
   C       -4.72088         2.62835        -0.86063
   C       -4.81021         1.48211        -0.05804
   C       -5.71876         1.44489         0.97328
   C       -5.79758         0.29284         1.78907
   N       -5.83523        -0.65367         2.43330
   C       -6.59370         2.54621         1.23433
   O       -7.41120         2.39372         2.28927
   C       -8.30991         3.42966         2.62143
   C       -6.56965         3.63897         0.39539
   C       -6.21108         5.90985        -1.79047
   S       -7.48701         6.49410        -0.73554
   C       -7.75470         7.98302        -1.62473
   C       -6.86585         8.00916        -2.71107
   C       -6.03088         6.86630        -2.78010
   O       -5.19464         6.93790        -3.83000
   C       -5.48611         8.11929        -4.43810
   N       -4.74642         8.47598        -5.59149
   O       -5.04107         9.53668        -6.10977
   O       -3.88545         7.71437        -5.97146
   C       -6.48852         8.81597        -3.81123
   C       -8.70588         8.94290        -1.27103
   S       -8.88825        10.36485        -2.25145
   C      -10.15529        11.01449        -1.25926
   C      -10.44335        10.14879        -0.18810
   C       -9.61762         8.98056        -0.19395
   C       -9.77958         8.02691         0.81682
   C      -10.73053         8.20915         1.79441
   C      -10.86593         7.22275         2.79635
   N      -10.93000         6.38650         3.57751
   C      -11.57269         9.36500         1.79865
   O      -12.46666         9.41686         2.79721
   C      -13.36812        10.50341         2.86356
   C      -11.41795        10.31332         0.81208
   C      -10.70458        12.26711        -1.63317
   S      -10.19087        13.00979        -3.14514
   C      -11.16360        14.40430        -2.94960
   C      -11.87065        14.33099        -1.77493
   C      -11.60868        13.12834        -1.04224
   O      -12.32150        13.12032         0.10729
   C      -13.02504        14.28733         0.11270
   N      -13.86143        14.51769         1.23179
   O      -14.49297        15.55336         1.24056
   O      -13.88359        13.66225         2.09348
   C      -12.80343        15.06322        -0.98904
   H       -0.31870         0.97614         2.22974
   H        1.45272        -1.28434        -1.87725
   H        1.79468        -0.31529         3.54249
   H       -2.54720         2.18571        -3.46857
   H       -4.19121         0.62223        -0.25726
   H       -8.83335         3.08927         3.51205
   H       -9.03488         3.60305         1.82099
   H       -7.78192         4.36076         2.84527
   H       -7.25661         4.45422         0.54254
   H       -6.87485         9.76540        -4.11887
   H       -9.16593         7.14196         0.84502
   H      -13.97942        10.31958         3.74405
   H      -14.00869        10.54148         1.97891
   H      -12.85146        11.45888         2.97482
   H      -12.03854        11.18843         0.80490
   H      -11.15749        15.17718        -3.68958
   H      -13.24802        16.01512        -1.19255
*
