# ORCA input file
# SCF done       -183.825407053364          0.000927197750
! CAM-B3LYP def2-SVP def2/J RIJCOSX Grid4 TightSCF
%maxcore 5000
%tddft
    Mode sTDDFT
    Ethresh 5.0
    maxcore 5000
end

%pal
  nprocs 6
  end
* xyz 0 1
   C      -14.38706        -7.40606        -7.35575
   C      -14.25490        -8.27547        -8.41502
   C      -14.45221        -9.66550        -8.31644
   N      -14.59335       -10.80575        -8.28964
   C      -13.86292        -7.92392        -9.72175
   N      -13.53203        -7.73727       -10.80657
   C      -14.69843        -7.81086        -5.98379
   C      -14.58528        -6.67496        -5.14789
   C      -14.78219        -6.73245        -3.79055
   C      -15.14164        -7.96707        -3.23277
   C      -15.30045        -9.08196        -4.08422
   C      -15.07127        -9.03037        -5.45538
   S      -15.80807       -10.49312        -3.20110
   C      -15.79896        -9.57624        -1.71938
   C      -15.42710        -8.28408        -1.87449
  Br      -16.32551       -10.41390        -0.12421
   C      -14.30710        -5.49198        -5.99431
   O      -14.30681        -4.32927        -5.61320
   C      -14.15755        -5.98440        -7.35782
   C      -13.99118        -5.21378        -8.50824
   C      -13.55448        -3.91110        -8.69106
   C      -12.82435        -3.05607        -7.86937
   C      -12.46262        -1.73237        -8.22682
   C      -11.69586        -1.08494        -7.30040
   C      -11.40025        -1.88368        -6.17966
   S      -12.12122        -3.46594        -6.34619
   C      -10.75877        -1.56619        -4.99037
   C      -10.17288        -0.36341        -4.54756
   C       -9.73436        -0.41210        -3.25362
   C       -9.95340        -1.65271        -2.61175
   S      -10.69270        -2.77321        -3.73640
   C       -9.71680        -1.97522        -1.29300
   C      -10.02182        -3.19660        -0.69174
   S      -10.66290        -4.58761        -1.56367
   C      -10.80905        -5.59365        -0.14282
   C      -10.37598        -4.86918         0.97604
   C       -9.93334        -3.56116         0.65036
   O       -9.51410        -2.91004         1.74715
   C       -9.68032        -3.78906         2.77565
   N       -9.30684        -3.36553         4.07049
   O       -9.46168        -4.17134         4.96932
   O       -8.86258        -2.24372         4.19491
   C      -10.19972        -4.99448         2.37344
   C      -11.29626        -6.89896        -0.27139
   C      -11.54074        -7.55063        -1.47753
   C      -12.01171        -8.83689        -1.27614
   C      -12.16257        -9.18149         0.09565
   S      -11.67605        -7.89652         1.13359
   C      -12.66541       -10.47784         0.13043
   C      -12.80230       -10.89307        -1.21766
   N      -12.40524        -9.88819        -2.06208
   C      -12.19748        -9.99502        -3.48013
   C      -13.34285       -12.17190        -1.35004
   C      -13.61513       -12.73448        -0.11952
   S      -13.16318       -11.71015         1.23143
   C      -14.23473       -14.00010         0.16463
   C      -15.01904       -14.70915        -0.74099
   O      -15.16753       -14.15751        -1.96768
   C      -16.35540       -14.32680        -2.72131
   C      -15.60132       -15.98793        -0.38759
   O      -16.25371       -16.61529        -1.39888
   C      -16.82640       -17.87971        -1.15706
   C      -15.47217       -16.52581         0.86559
   C      -14.72636       -15.80589         1.81178
   C      -14.10186       -14.55943         1.46118
   N      -13.46643       -14.12353         2.52804
   O      -13.67761       -15.03083         3.48246
   N      -14.43155       -16.05234         3.07277
   H      -14.67699        -5.85196        -3.17632
   H      -15.20239        -9.91190        -6.05969
   H      -15.36946        -7.57673        -1.06738
   H      -14.28366        -5.70678        -9.42839
   H      -13.74902        -3.49984        -9.67558
   H      -12.79993        -1.29073        -9.14801
   H      -11.36037        -0.06723        -7.38892
   H      -10.10482         0.50449        -5.17849
   H       -9.27760         0.41340        -2.73665
   H       -9.29513        -1.21669        -0.64713
   H      -10.41495        -5.83178         3.00453
   H      -11.36245        -7.08293        -2.42874
   H      -12.85767       -10.75808        -3.88735
   H      -11.16239       -10.27123        -3.70272
   H      -12.41530        -9.03969        -3.95732
   H      -13.52473       -12.67728        -2.27774
   H      -16.33168       -15.24689        -3.30699
   H      -16.38836       -13.46855        -3.39350
   H      -17.24060       -14.32018        -2.08400
   H      -17.60216       -17.82683        -0.38791
   H      -16.06834       -18.61146        -0.86399
   H      -17.27398       -18.18026        -2.10286
   H      -15.89940       -17.47192         1.14475
*
