# ORCA input file
# SCF done       -175.562382382070          0.000331614038
! CAM-B3LYP def2-SVP def2/J RIJCOSX Grid4 TightSCF
%maxcore 5000
%tddft
    Mode sTDDFT
    Ethresh 5.0
    maxcore 5000
end

%pal
  nprocs 6
  end
* xyz 0 1
   C       -8.17586        -0.79895        -6.24226
   C       -7.70319         0.47100        -6.49664
   C       -6.93353         0.81971        -7.62378
   N       -6.30107         1.18066        -8.51266
   C       -7.86556         1.59665        -5.67327
   N       -7.93764         2.56994        -5.06229
   C       -7.94013        -1.95418        -7.10418
   C       -8.44636        -3.10702        -6.45984
   C       -8.36970        -4.35997        -7.01304
   C       -7.77936        -4.48023        -8.27700
   C       -7.28434        -3.32148        -8.91779
   C       -7.35103        -2.05430        -8.35024
   S       -6.59795        -3.69346       -10.47113
   C       -6.98063        -5.37859       -10.23975
   C       -7.59109        -5.65063        -9.06220
  Br       -6.54032        -6.61963       -11.57620
   C       -9.01550        -2.72189        -5.14701
   O       -9.34290        -3.49093        -4.26986
   C       -8.95180        -1.24180        -5.10947
   C       -9.49033        -0.39798        -4.15995
   C      -10.43827        -0.70553        -3.16912
   C      -10.77575         0.18194        -2.13801
   O      -11.68349        -0.15517        -1.16984
   C      -12.19451        -1.41939        -1.22341
   C      -11.87440        -2.30378        -2.29093
   C      -12.47764        -3.51224        -2.17190
   S      -13.45011        -3.58197        -0.74971
   C      -13.03613        -1.96827        -0.31180
   O      -11.06062        -1.92145        -3.30474
   C      -10.22903         1.47762        -1.98325
   C      -10.56768         2.28168        -0.92682
   C      -10.14973         3.59599        -0.66130
   S      -10.61103         4.27943         0.87642
   C       -9.81365         5.79747         0.52918
   C       -9.19948         5.73729        -0.73077
   C       -9.40617         4.52886        -1.39670
   C       -8.88765         4.27314        -2.77286
   C       -8.37367         5.54241        -3.44242
   C       -7.48186         6.30985        -2.46283
   C       -6.80414         7.44790        -3.17662
   O       -6.93617         8.61259        -2.92702
   C       -8.33054         6.81232        -1.29749
   C       -9.90929         6.75767         1.55076
   C       -9.69148         8.11543         1.61517
   C       -9.85238         8.85950         2.81497
   C       -9.63652        10.19814         2.69121
   C       -9.29630        10.59639         1.38117
   S       -9.27912         9.21375         0.31384
   C       -8.97924        11.85777         0.91279
   C       -8.96883        13.08036         1.62159
   C       -8.58446        14.14633         0.86858
   C       -8.26367        13.82427        -0.47647
   S       -8.49132        12.10721        -0.74958
   C       -7.82564        14.70205        -1.43185
   C       -7.46966        14.40395        -2.75881
   S       -7.51440        12.80742        -3.49252
   C       -6.93680        13.35459        -5.01119
   C       -6.70758        14.71190        -4.98919
   C       -7.01071        15.29022        -3.72046
   O       -6.77567        16.61777        -3.72558
   C       -6.32636        16.89467        -4.98055
   N       -5.99444        18.23802        -5.27740
   O       -5.59383        18.45956        -6.40478
   O       -6.12988        19.06460        -4.40153
   C       -6.26011        15.79520        -5.79393
   H       -8.75727        -5.22145        -6.49221
   H       -6.95659        -1.20365        -8.88004
   H       -7.89639        -6.63515        -8.75789
   H       -9.19004         0.63504        -4.21282
   H      -12.39955        -4.35139        -2.82989
   H      -13.43206        -1.52229         0.57642
   H       -9.52598         1.81417        -2.72020
   H      -11.22720         1.85810        -0.17998
   H       -9.67716         3.84165        -3.39052
   H       -8.07460         3.54327        -2.72488
   H       -9.21121         6.17991        -3.73193
   H       -7.82389         5.26613        -4.34209
   H       -6.69804         5.63128        -2.10626
   H       -6.15249         7.10899        -4.00688
   H       -8.94809         7.63695        -1.66418
   H       -7.68405         7.21382        -0.51523
   H      -10.28710         6.34496         2.48107
   H      -10.11553         8.37355         3.73803
   H       -9.70297        10.90030         3.50249
   H       -9.24346        13.13820         2.65942
   H       -8.51156        15.15604         1.23171
   H       -7.72588        15.74256        -1.15143
   H       -6.80061        12.65944        -5.81329
   H       -5.93618        15.78560        -6.81387
*
