# ORCA input file
# SCF done       -178.434804082181          0.000744740190
! CAM-B3LYP def2-SVP def2/J RIJCOSX Grid4 TightSCF
%maxcore 5000
%tddft
    Mode sTDDFT
    Ethresh 5.0
    maxcore 5000
end

%pal
  nprocs 6
  end
* xyz 0 1
   C      -14.07521       -11.64611         0.83417
   C      -12.71975       -11.47064         0.99371
   C      -11.77521       -12.51104         0.91823
   N      -10.94065       -13.29619         0.82556
   C      -12.05361       -10.24489         1.19098
   N      -11.40967        -9.30740         1.35799
   C      -14.73690       -12.94042         0.68073
   C      -16.12448       -12.71632         0.51234
   C      -17.02545       -13.73747         0.34938
   C      -16.53368       -15.04913         0.36058
   C      -15.14747       -15.26328         0.53118
   C      -14.23461       -14.22612         0.69195
   S      -14.75573       -16.95759         0.51797
   C      -16.43935       -17.34812         0.29224
   C      -17.25315       -16.26774         0.22523
  Br      -16.96391       -19.14542         0.15985
   C      -16.38207       -11.26043         0.54360
   O      -17.46821       -10.72120         0.36813
   C      -15.08549       -10.62654         0.76434
   C      -14.87518        -9.25274         0.84228
   C      -15.87437        -8.30134         0.86270
   C      -15.61990        -6.93120         0.89199
   C      -16.55769        -5.89198         0.96874
   C      -16.00371        -4.63390         0.92108
   C      -14.61078        -4.64267         0.79077
   S      -14.00359        -6.28000         0.76493
   C      -13.72851        -3.56869         0.64817
   C      -13.98254        -2.19064         0.71030
   C      -12.86136        -1.42375         0.52583
   C      -11.68673        -2.16646         0.29580
   S      -12.04792        -3.87172         0.32857
   C      -10.41705        -1.64344         0.09051
   C       -9.27380        -2.37510        -0.19247
   S       -9.32695        -4.10728        -0.43531
   C       -7.60782        -4.20732        -0.74278
   C       -7.02154        -2.93311        -0.64588
   C       -7.94221        -1.91844        -0.35058
   N       -7.52173        -0.57184        -0.22276
   O       -8.34868         0.27764         0.06192
   O       -6.34140        -0.34075        -0.40535
   C       -5.63863        -2.76142        -0.84895
   N       -4.50584        -2.74881        -1.02911
   C       -6.99793        -5.42853        -1.02982
   C       -7.75143        -6.57481        -1.18125
   C       -7.29054        -7.85876        -1.41628
   C       -8.16670        -8.92345        -1.59847
   C       -7.86102       -10.28701        -1.76141
   C       -8.96174       -11.08964        -1.91599
   C      -10.17455       -10.38089        -1.89724
   S       -9.89697        -8.68292        -1.65732
   C      -11.47486       -10.86370        -2.04000
   C      -11.91449       -12.18906        -2.19264
   C      -13.27687       -12.30578        -2.25183
   C      -13.96691       -11.07521        -2.16993
   S      -12.82395        -9.76099        -2.00597
   C      -15.34018       -10.92959        -2.16746
   C      -16.08557        -9.74110        -2.16576
   S      -17.84010        -9.83202        -2.08379
   C      -18.06173        -8.14492        -2.13832
   C      -16.84593        -7.49253        -2.19309
   C      -15.73973        -8.39557        -2.19746
   O      -14.57869        -7.71649        -2.28215
   C      -14.92248        -6.40071        -2.31005
   N      -13.87963        -5.44964        -2.36298
   O      -14.21270        -4.27900        -2.27536
   O      -12.74125        -5.84621        -2.47991
   C      -16.27624        -6.19410        -2.26334
   H      -18.07777       -13.53549         0.22468
   H      -13.18736       -14.44160         0.82149
   H      -18.31760       -16.32636         0.08904
   H      -13.85375        -8.89692         0.89350
   H      -16.90770        -8.61741         0.87921
   H      -17.61154        -6.08812         1.05590
   H      -16.56992        -3.72127         0.96197
   H      -14.96418        -1.79329         0.89342
   H      -12.85171        -0.34848         0.54261
   H      -10.31016        -0.56943         0.16165
   H       -5.92260        -5.44751        -1.14141
   H       -8.82823        -6.46086        -1.10918
   H       -6.22821        -8.05765        -1.45011
   H       -6.84727       -10.64637        -1.75109
   H       -8.92235       -12.15689        -2.03700
   H      -11.23366       -13.01937        -2.23481
   H      -13.80257       -13.23863        -2.35607
   H      -15.91900       -11.84291        -2.22112
   H      -19.04576        -7.72398        -2.11984
   H      -16.77015        -5.24497        -2.27993
*
