# ORCA input file
# SCF done       -188.387224171513          0.000480620574
! CAM-B3LYP def2-SVP def2/J RIJCOSX Grid4 TightSCF
%maxcore 5000
%tddft
    Mode sTDDFT
    Ethresh 5.0
    maxcore 5000
end

%pal
  nprocs 6
  end
* xyz 0 1
   C       -5.81943         0.99118         2.55885
   C       -6.67403         0.76295         3.60900
   C       -6.25299         0.48572         4.92636
   N       -5.98456         0.25433         6.01857
   C       -8.08203         0.79131         3.55685
   N       -9.23026         0.81745         3.61077
   C       -4.36621         1.01025         2.65438
   C       -3.82969         1.32529         1.38267
   C       -2.48048         1.43852         1.15129
   C       -1.61392         1.22135         2.22711
   C       -2.15726         0.90112         3.49448
   C       -3.52166         0.79297         3.72894
   S       -0.91087         0.67110         4.68370
   C        0.30513         1.00374         3.47878
   C       -0.19350         1.27308         2.24890
  Br        2.11782         0.96477         3.95875
   C       -4.92640         1.48791         0.40879
   O       -4.79999         1.79036        -0.75859
   C       -6.17864         1.25946         1.17397
   C       -7.45335         1.42118         0.72144
   C       -7.89362         1.59375        -0.63013
   C       -7.25667         0.94972        -1.66173
   S       -7.95876         1.17944        -3.19320
   C       -9.15345         2.23087        -2.49052
   C       -9.03677         2.35943        -1.09951
   C       -9.94351         3.21922        -0.42946
   C       -9.88724         3.33293         1.07420
   C       -8.71851         4.20148         1.54311
   C      -10.88039         3.95424        -1.15039
   C      -11.72352         4.99032        -0.44927
   C      -13.09457         4.44615        -0.04317
   C      -11.04294         3.75402        -2.54518
   C      -12.02328         4.25038        -3.49316
   C      -11.80071         3.76423        -4.74933
   S      -10.44874         2.71845        -4.89395
   C      -10.15413         2.88015        -3.19236
   C      -13.17213         5.08846        -3.23567
   C      -14.35712         4.98206        -3.86892
   C      -15.48286         5.77389        -3.49228
   O      -15.31951         6.68752        -2.47487
   C      -16.54133         7.18232        -2.23076
   C      -17.20858         8.06491        -1.36009
   C      -16.56697         9.05710        -0.48572
   O      -17.13237        10.02283        -0.01155
   N      -15.24822         8.81670        -0.27964
   C      -18.56103         7.94351        -1.73008
   O      -18.71306         7.09801        -2.80445
   C      -17.48667         6.61899        -3.08489
   C      -16.80463         5.71227        -3.90860
   C      -19.73460         8.46446        -1.14118
   C      -19.89299         8.71748         0.19791
   C      -21.04351         9.25316         0.83603
   C      -20.97069         9.27985         2.19619
   C      -19.76262         8.75543         2.70745
   S      -18.72076         8.24974         1.40307
   C      -19.33417         8.62099         4.01586
   C      -19.96298         8.99284         5.22105
   C      -19.22459         8.71497         6.33465
   C      -17.97726         8.10181         6.06934
   S      -17.77551         7.89472         4.34152
   C      -17.03906         7.71031         6.99779
   C      -15.81501         7.08830         6.74521
   S      -15.22234         6.65475         5.15119
   C      -13.74011         5.94659         5.73972
   C      -13.69829         6.05010         7.13006
   C      -14.85089         6.68294         7.67208
   N      -14.67514         6.71428         9.01446
   N      -13.50481         6.15300         9.36382
   C      -12.90730         5.75164         8.27170
   C      -12.82707         5.37934         4.80395
   C      -11.66891         4.78781         5.11311
   H       -2.10646         1.68465         0.16984
   H       -3.88300         0.54974         4.71378
   H        0.41357         1.49976         1.39156
   H       -8.23110         1.39293         1.46646
   H       -6.41838         0.28797        -1.57637
   H       -9.82021         2.33567         1.50724
   H      -10.81413         3.74896         1.46148
   H       -7.77607         3.84953         1.12957
   H       -8.64702         4.18392         2.62861
   H       -8.85970         5.23149         1.22215
   H      -11.83703         5.84907        -1.10904
   H      -11.20527         5.36289         0.43310
   H      -13.68789         5.22575         0.43069
   H      -12.98525         3.62169         0.65789
   H      -13.63570         4.07931        -0.91176
   H      -12.36709         3.99587        -5.62984
   H      -13.09587         5.84533        -2.47444
   H      -14.53436         4.24156        -4.63355
   H      -14.77409         8.04546        -0.71328
   H      -14.72279         9.47619         0.26791
   H      -17.19458         5.08508        -4.68238
   H      -20.59477         8.56635        -1.78802
   H      -21.88328         9.60670         0.26413
   H      -21.74780         9.65271         2.83964
   H      -20.93257         9.45755         5.23659
   H      -19.53851         8.93261         7.34071
   H      -17.27287         7.89760         8.03859
   H      -15.28180         7.08445         9.72610
   H      -11.95144         5.27328         8.33133
   H      -13.13878         5.44858         3.76936
   H      -11.33109         4.69701         6.12940
   H      -11.03417         4.36972         4.35248
*
