# ORCA input file
# SCF done       -179.105799715396          0.000858317730
! CAM-B3LYP def2-SVP def2/J RIJCOSX Grid4 TightSCF
%maxcore 5000
%tddft
    Mode sTDDFT
    Ethresh 5.0
    maxcore 5000
end

%pal
  nprocs 6
  end
* xyz 0 1
   C       -7.64161        -0.16470         2.09965
   C       -6.38653        -0.69383         1.91828
   C       -6.00165        -1.98318         2.33751
   N       -5.62580        -3.02474         2.64263
   C       -5.31281        -0.04280         1.27897
   N       -4.39052         0.41415         0.76783
   C       -8.75082        -0.82993         2.77497
   C       -9.88384         0.01936         2.74080
   C      -11.08788        -0.32626         3.30260
   C      -11.17629        -1.56703         3.94287
   C      -10.03991        -2.40974         3.97247
   C       -8.82431        -2.06347         3.39522
   S      -10.36847        -3.89589         4.81111
   C      -12.00450        -3.37080         5.10836
   C      -12.29257        -2.14706         4.60579
  Br      -13.17835        -4.49021         6.04896
   C       -9.54318         1.26242         2.02444
   O      -10.31588         2.11507         1.64985
   C       -8.09163         1.15176         1.70789
   C       -7.37680         2.10591         1.03871
   C       -7.77295         3.45574         0.93195
   O       -7.26047         4.22349        -0.07332
   C       -8.55592         4.26845         1.73957
   C       -9.29256         4.32435         3.01528
   O       -9.45408         3.49996         3.87541
   N       -9.73736         5.63936         3.07322
   C       -9.32268         6.45714         2.01931
   O       -9.58662         7.62582         1.90641
   C       -8.53406         5.55615         1.17865
   C       -7.72368         5.49904         0.04296
   C       -7.37070         6.49695        -0.87332
   C       -6.50222         6.28774        -1.91984
   C       -6.14365         7.26555        -2.83926
   C       -5.24108         7.06867        -3.87243
   C       -4.83887         8.00788        -4.83902
   C       -3.91437         7.53082        -5.73218
   C       -3.54669         6.19685        -5.50391
   S       -4.40989         5.55014        -4.13338
   C       -2.61558         5.43274        -6.21122
   C       -1.84812         5.81891        -7.31701
   C       -0.99757         4.83674        -7.76578
   C       -1.06390         3.64586        -7.03329
   S       -2.24677         3.79065        -5.75487
   C       -0.30269         2.49422        -7.23820
   C       -0.39610         1.34975        -6.48571
   C        0.39431         0.21430        -6.66579
   C        0.33755        -0.97260        -5.92349
   C        1.25480        -1.91900        -6.30827
   C        2.07272        -1.50960        -7.37129
   S        1.64480         0.10502        -7.88166
   C        3.10500        -2.21876        -7.97970
   C        3.56138        -3.51243        -7.66615
   C        4.60698        -3.92978        -8.43847
   C        5.02815        -2.98422        -9.40246
   S        4.03914        -1.54047        -9.29115
   C        6.05695        -3.15257       -10.29701
   C        6.50800        -2.24380       -11.26391
   S        5.83943        -0.64435       -11.55767
   C        6.93767        -0.28140       -12.82805
   C        7.80006        -1.33240       -13.04223
   C        7.55108        -2.42589       -12.16129
   O        8.40813        -3.43877       -12.39278
   C        9.20247        -3.00783       -13.41065
   N       10.21401        -3.88522       -13.87099
   O       10.90959        -3.47648       -14.78156
   O       10.31597        -4.96661       -13.33415
   C        8.89317        -1.74884       -13.85114
   H      -11.93087         0.34482         3.25898
   H       -7.98913        -2.74204         3.44358
   H      -13.25156        -1.67072         4.69762
   H       -6.44309         1.85653         0.55276
   H      -10.29442         5.98775         3.84028
   H       -7.81777         7.46631        -0.71069
   H       -6.06675         5.30245        -2.03048
   H       -6.58604         8.24900        -2.75190
   H       -5.23559         9.00740        -4.85359
   H       -3.49653         8.11220        -6.53405
   H       -1.92623         6.79538        -7.75924
   H       -0.32913         4.95172        -8.60066
   H        0.41633         2.52696        -8.04751
   H       -1.12353         1.31067        -5.68462
   H       -0.36973        -1.10624        -5.12437
   H        1.35227        -2.88475        -5.84693
   H        3.11573        -4.10166        -6.88550
   H        5.08962        -4.88612        -8.34517
   H        6.59450        -4.09143       -10.26443
   H        6.88320         0.66240       -13.32900
   H        9.38689        -1.21790       -14.63818
*
