# ORCA input file
# SCF done       -162.872171289176          0.000847252249
! CAM-B3LYP def2-SVP def2/J RIJCOSX Grid4 TightSCF
%maxcore 5000
%tddft
    Mode sTDDFT
    Ethresh 5.0
    maxcore 5000
end

%pal
  nprocs 6
  end
* xyz 0 1
   C        3.93374        -9.30094         0.28768
   C        2.71905        -9.12818        -0.36214
   N        1.58446        -8.46229         0.05369
   C        1.50813        -7.81526         1.33623
   C        2.03396        -6.38132         1.28681
   C        0.63411        -8.53378        -0.93775
   C        1.16209        -9.30747        -2.00826
   C        2.49870        -9.67594        -1.64240
   C        3.49502       -10.40833        -2.27433
   C        4.69892       -10.57971        -1.62156
   C        4.91224       -10.03191        -0.35860
   C        0.41508        -9.59288        -3.13827
   C       -0.87705        -9.10695        -3.20970
   C       -1.39921        -8.35096        -2.17597
   C       -0.68087        -8.03056        -1.01549
   C       -1.29377        -7.16932        -0.02386
   C       -2.62520        -7.03536         0.15494
   C       -3.24588        -6.11006         1.04964
   S       -4.79745        -5.46457         0.61959
   C       -4.76331        -4.43298         2.00847
   N       -5.85180        -3.58412         2.24221
   O       -5.80048        -2.85463         3.21612
   O       -6.77705        -3.63916         1.45012
   C       -3.63365        -4.59062         2.76895
   C       -2.76295        -5.56200         2.24371
   C       -1.58367        -6.03938         2.92237
   C       -0.84824        -5.30898         3.77791
   C        0.28982        -5.80170         4.49379
   C        0.72610        -7.08487         4.66516
   C        1.91556        -7.18655         5.42781
   C        2.38689        -5.91411         5.84986
   S        1.34102        -4.64064         5.28946
   C        3.52431        -5.75970         6.60920
   C        4.22639        -6.90897         6.97281
   C        3.76068        -8.18129         6.54547
   C        2.62454        -8.33452         5.78298
   S        4.80144        -9.45580         7.11660
   C        5.83268        -8.29216         7.93978
   C        5.40210        -7.00722         7.75583
   C        6.97722        -8.75148         8.65579
   S        7.77020       -10.20775         8.15086
   C        8.97325        -9.97237         9.37055
   N       10.00235       -10.92064         9.48186
   O       10.84756       -10.73923        10.33734
   O        9.97095       -11.86127         8.70853
   C        8.77127        -8.85163        10.12881
   C        7.61462        -8.13801         9.74613
   C        7.09324        -7.00056        10.43939
   C        7.78124        -6.23856        11.32802
   C        7.20243        -5.15115        12.01195
   C        7.86440        -4.34170        12.89456
   C        7.31638        -3.23803        13.60292
   C        8.19579        -2.60112        14.41664
   C        9.50016        -3.15881        14.40660
   S        9.55994        -4.53175        13.31599
   C       10.59729        -2.73814        15.11756
   C       10.66482        -1.64215        16.02606
   C       11.87918        -1.45799        16.58626
   C       12.87682        -2.40035        16.16372
   S       12.15559        -3.52930        15.00501
   C       14.15821        -2.46290        16.54822
   H        4.12511        -8.88129         1.26377
   H        2.10741        -8.39635         2.04387
   H        0.47419        -7.83987         1.68197
   H        3.08088        -6.37850         0.99252
   H        1.94358        -5.91528         2.26396
   H        1.47851        -5.78857         0.56311
   H        3.32867       -10.83064        -3.25351
   H        5.49026       -11.14295        -2.09266
   H        5.86593       -10.17912         0.12604
   H        0.83900       -10.17698        -3.94004
   H       -1.48327        -9.30380        -4.08065
   H       -2.39386        -7.95000        -2.29010
   H       -0.64131        -6.53492         0.55609
   H       -3.31213        -7.60536        -0.45552
   H       -3.47223        -4.04991         3.68356
   H       -1.32092        -7.06887         2.72441
   H       -1.08032        -4.26400         3.92929
   H        0.20836        -7.94576         4.28303
   H        3.86471        -4.78525         6.92142
   H        2.28490        -9.30953         5.47127
   H        5.93229        -6.14712         8.12214
   H        9.41970        -8.58119        10.94179
   H        6.05763        -6.75766        10.24533
   H        8.82613        -6.43731        11.52395
   H        6.15716        -4.93575        11.83065
   H        6.28482        -2.95760        13.48115
   H        7.94960        -1.74858        15.02377
   H        9.80424        -1.02983        16.22922
   H       12.12103        -0.68441        17.29329
   H       14.55388        -1.75402        17.25412
   H       14.82785        -3.21244        16.16848
*
