# ORCA input file
# SCF done       -147.674826725716          0.000416892355
! CAM-B3LYP def2-SVP def2/J RIJCOSX Grid4 TightSCF
%maxcore 5000
%tddft
    Mode sTDDFT
    Ethresh 5.0
    maxcore 5000
end

%pal
  nprocs 6
  end
* xyz 0 1
   C        3.26439        -1.59392         1.05579
   S        1.70871        -0.94464         1.78556
   C        2.23039        -1.31032         3.48986
   C        3.75967        -1.27238         3.46772
   C        4.15001        -2.06081         2.20694
   C        4.34315        -2.00488         4.69272
   O        3.76475        -2.91300         5.24108
   N        5.57800        -1.59089         5.03097
   N        4.27505         0.08272         3.37873
   C        3.94848         0.98472         4.37044
   C        3.73159         2.29004         4.15080
   C        3.53922         3.24310         5.21227
   C        2.92002         4.44482         5.05628
   O        2.90865         5.41629         6.05816
   C        3.48771         5.04576         7.23034
   C        4.06643         3.75506         7.41376
   C        4.57927         3.57883         8.65557
   S        4.36491         4.98801         9.62786
   C        3.57569         5.82121         8.33836
   O        4.10268         2.83099         6.41216
   C        2.21172         4.90227         3.89432
   C        1.63371         4.15410         2.93295
   C        0.94374         4.73718         1.82032
   C        0.42949         4.05961         0.78127
   C        0.51561         2.57089         0.62882
   C       -0.27126         4.79888        -0.33331
   N       -1.51041         4.16948        -0.70733
   C       -1.79060         3.69261        -1.93285
   C       -2.90973         2.98510        -2.24873
   C       -3.19792         2.54355        -3.55038
   C       -4.30556         1.80856        -3.88883
   C       -4.67591         1.34234        -5.17195
   C       -5.83584         0.62725        -5.19546
   C       -6.44361         0.48422        -3.92835
   S       -5.50359         1.29631        -2.70270
   C       -7.60538        -0.19147        -3.60097
   C       -8.48908        -0.89356        -4.44411
   C       -9.54013        -1.46038        -3.78713
   C       -9.54331        -1.23814        -2.38589
   S       -8.15603        -0.26835        -1.93847
   C      -10.48813        -1.72473        -1.51605
   C      -10.55609        -1.55562        -0.12095
   S      -11.85353        -2.34525         0.77106
   C      -11.34780        -1.75107         2.30758
   C      -10.22715        -0.97187         2.16237
   C       -9.78841        -0.86528         0.80291
   O       -8.68891        -0.08256         0.72276
   C       -8.42060         0.30435         1.99559
   N       -7.30790         1.13955         2.21200
   O       -7.09271         1.47054         3.36810
   O       -6.63598         1.47592         1.25707
   C       -9.30705        -0.19454         2.91570
   H        3.71856        -0.78571         0.48205
   H        3.01466        -2.40550         0.37552
   H        1.87428        -2.29723         3.78493
   H        1.80630        -0.55473         4.14851
   H        3.97744        -3.11968         2.40515
   H        5.20545        -1.91883         1.97225
   H        5.98740        -0.78378         4.59269
   H        6.02963        -2.00723         5.82832
   H        4.17085         0.47681         2.45074
   H        3.90239         0.57564         5.36940
   H        3.74159         2.68599         3.14620
   H        5.06405         2.71228         9.05350
   H        3.22603         6.82308         8.47225
   H        2.09331         5.97831         3.86473
   H        1.64613         3.07830         2.99701
   H        0.85582         5.81661         1.83338
   H        1.53026         2.21766         0.79779
   H        0.20702         2.26484        -0.36736
   H       -0.12711         2.06481         1.34854
   H        0.37308         4.82411        -1.21951
   H       -0.46022         5.83486        -0.02463
   H       -2.15552         3.95423         0.03861
   H       -1.06089         3.92625        -2.69815
   H       -3.62216         2.74665        -1.47069
   H       -2.50606         2.79782        -4.34362
   H       -4.07350         1.55150        -6.03913
   H       -6.26664         0.19810        -6.08247
   H       -8.33104        -0.96333        -5.50583
   H      -10.31641        -2.03511        -4.26115
   H      -11.27967        -2.32297        -1.94745
   H      -11.89430        -2.00670         3.19005
   H       -9.28619        -0.01792         3.97079
*
