# ORCA input file
# SCF done       -157.276226079409          0.000479136965
! CAM-B3LYP def2-SVP def2/J RIJCOSX Grid4 TightSCF
%maxcore 5000
%tddft
    Mode sTDDFT
    Ethresh 5.0
    maxcore 5000
end

%pal
  nprocs 6
  end
* xyz 0 1
   C       -7.42085       -15.28990        -7.84118
   O       -6.80631       -14.95276        -6.69401
   C       -8.59444       -15.92215        -7.56891
   C       -9.78877       -16.55966        -8.15142
   O      -10.11267       -16.73380        -9.29551
   N      -10.52299       -16.94822        -7.03815
   C       -9.95375       -16.64252        -5.79695
   O      -10.44589       -16.90403        -4.72968
   C       -8.70409       -15.97620        -6.14931
   C       -7.57505       -15.36275        -5.63820
   C       -7.17779       -15.12546        -4.30150
   C       -6.03424       -14.47201        -3.96030
   C       -5.65034       -14.24533        -2.61374
   C       -4.54607       -13.58301        -2.06548
   C       -3.49956       -12.83519        -2.79199
   O       -2.34156       -12.82015        -2.49446
   O       -3.94070       -12.14902        -3.86963
   C       -4.69400       -13.79617        -0.66707
   N       -5.78869       -14.48930        -0.42748
   O       -6.37979       -14.77290        -1.60877
   C       -3.83994       -13.41121         0.43027
   C       -4.03506       -13.40892         1.80277
   C       -5.23361       -13.56253         2.66706
   O       -5.25693       -13.08546         3.77481
   O       -6.27451       -14.22955         2.18870
   C       -2.73392       -13.05794         2.30314
   N       -1.90863       -12.85547         1.30201
   O       -2.57747       -13.06231         0.16121
   C       -2.31062       -12.87115         3.66714
   S       -1.37812       -11.44650         3.98883
   C       -1.44337       -11.71929         5.66560
   C       -2.12255       -12.86930         5.98918
   C       -2.58138       -13.58342         4.82897
   C       -3.21556       -14.85428         4.92315
   S       -3.57421       -15.56828         6.44692
   O       -2.11677       -16.47166         6.85266
   C       -1.66134       -17.44440         5.95679
   C       -3.18386       -14.32599         7.64235
   C       -2.46408       -13.23465         7.32004
   O       -3.65344       -14.49951         8.89615
   C       -4.04367       -15.79739         9.29511
   C       -3.57657       -15.63613         3.80583
   C       -4.49937       -16.65219         3.78023
   C       -4.96098       -17.31753         2.63900
   C       -4.52607       -17.23711         1.33075
   C       -5.23562       -17.72757         0.21169
   C       -4.66186       -17.45333        -0.99549
   C       -3.43761       -16.75941        -0.90224
   S       -3.03231       -16.48879         0.78100
   C       -2.63508       -16.27793        -1.91760
   C       -2.90893       -16.30443        -3.31233
   C       -1.95751       -15.71398        -4.07169
   C       -0.85344       -15.18340        -3.32717
   S       -1.10825       -15.49064        -1.60710
   C        0.22637       -14.54692        -3.80188
   H       -6.92923       -15.02806        -8.75718
   H      -11.41249       -17.42038        -7.11832
   H       -7.85368       -15.48561        -3.54048
   H       -5.36096       -14.13040        -4.73252
   H       -4.90158       -12.16158        -3.96840
   H       -6.18193       -14.51355         1.24825
   H       -1.00498       -11.01731         6.34654
   H       -0.66758       -17.73463         6.29848
   H       -1.58677       -17.04150         4.94079
   H       -2.31630       -18.32136         5.94927
   H       -2.19265       -12.55808         8.11717
   H       -4.19810       -15.73931        10.37095
   H       -3.26598       -16.53153         9.07105
   H       -4.98012       -16.09283         8.81104
   H       -3.09128       -15.36518         2.88188
   H       -5.00797       -16.89572         4.70482
   H       -5.83688       -17.93864         2.77937
   H       -6.17534       -18.23771         0.32826
   H       -5.08784       -17.73197        -1.94286
   H       -3.81067       -16.74747        -3.69947
   H       -1.99422       -15.62117        -5.14274
   H        0.34219       -14.37427        -4.85728
   H        0.99161       -14.17292        -3.14767
*
