# ORCA input file
# SCF done       -136.313116730541          0.000963795776
! CAM-B3LYP def2-SVP def2/J RIJCOSX Grid4 TightSCF
%maxcore 5000
%tddft
    Mode sTDDFT
    Ethresh 5.0
    maxcore 5000
end

%pal
  nprocs 6
  end
* xyz 0 1
   C       -1.09148         1.34708         2.19691
   C       -0.60620         0.12800         2.60911
   C       -0.22563        -0.11370         4.02562
   O       -0.35376         0.75754         4.84315
   O        0.25223        -1.30983         4.36002
   C       -0.62783        -0.63607         1.38866
   N       -1.08421         0.11278         0.40619
   O       -1.36614         1.32325         0.90452
   C       -0.26060        -1.99321         1.09267
   O        0.29472        -2.78748         2.05431
   C       -0.35964        -2.72243        -0.06557
   C       -0.79956        -2.69237        -1.47418
   O       -1.29856        -1.83016        -2.13777
   N       -0.50352        -3.97927        -1.92869
   C        0.06762        -4.83540        -0.99512
   O        0.38796        -5.97785        -1.20011
   C        0.15820        -4.01593         0.21584
   C        0.55446        -4.02455         1.53620
   C        1.13201        -5.01542         2.37792
   C        1.39941        -6.26516         1.94957
   C        1.97251        -7.29581         2.78831
   C        2.17202        -8.54372         2.31584
   C        2.31573        -6.96970         4.11822
   C        2.62041        -6.68899         5.25786
   C        2.98431        -6.42008         6.57143
   C        3.40601        -7.40505         7.41021
   C        3.79784        -7.19888         8.74511
   C        4.20238        -8.21470         9.57368
   C        4.62592        -8.11776        10.92348
   C        4.96340        -9.30907        11.48980
   C        4.82072       -10.41422        10.61936
   S        4.25203        -9.89264         9.05285
   C        5.05756       -11.75227        10.87098
   C        5.51686       -12.36852        12.05564
   C        5.62903       -13.72140        11.95893
   C        5.26234       -14.25108        10.69218
   S        4.77562       -12.94902         9.62660
   C        5.28104       -15.58211        10.36205
   C        4.92206       -16.17819         9.13718
   S        5.01387       -17.92869         8.97854
   C        4.46450       -17.94868         7.35078
   C        4.21296       -16.66821         6.92079
   C        4.47139       -15.68140         7.92504
   O        4.21049       -14.44576         7.44703
   C        3.79324       -14.62671         6.16795
   N        3.45052       -13.47580         5.42240
   O        3.07986       -13.66170         4.27672
   O        3.54253       -12.39325         5.96139
   C        3.76912       -15.94073         5.78267
   H       -1.26348         2.25021         2.74840
   H        0.31653        -1.93057         3.61298
   H       -0.69592        -4.26848        -2.87754
   H        1.34594        -4.72038         3.39619
   H        1.17582        -6.54510         0.92913
   H        1.91378        -8.79867         1.30264
   H        2.58952        -9.31914         2.93400
   H        2.92071        -5.39292         6.90814
   H        3.44615        -8.42015         7.03437
   H        3.78283        -6.19286         9.14423
   H        4.66708        -7.16956        11.43043
   H        5.30545        -9.42482        12.50281
   H        5.75032       -11.80249        12.93968
   H        5.96108       -14.36402        12.75518
   H        5.60461       -16.26917        11.13257
   H        4.36361       -18.87550         6.82672
   H        3.47513       -16.31254         4.82327
*
