# ORCA input file
# SCF done       -136.650642656507          0.000437560078
! CAM-B3LYP def2-SVP def2/J RIJCOSX Grid4 TightSCF
%maxcore 5000
%tddft
    Mode sTDDFT
    Ethresh 5.0
    maxcore 5000
end

%pal
  nprocs 6
  end
* xyz 0 1
   N        7.41619       -18.28389        -1.09384
   C        7.45463       -16.92297        -1.39079
   C        8.53322       -16.10637        -1.25875
   S        8.19716       -14.49562        -1.76939
   C        6.58313       -14.91070        -2.17622
   C        6.32334       -16.23282        -1.94785
   N        5.15066       -16.91090        -2.23504
   C        3.99485       -16.35032        -2.63547
   C        2.91872       -17.05484        -3.09613
   C        1.68113       -16.51616        -3.49296
   C        1.20476       -15.23183        -3.35069
   C       -0.04351       -14.74316        -3.80519
   C       -0.29794       -13.43511        -3.49868
   C        0.73379       -12.81384        -2.77125
   S        2.04550       -13.93759        -2.51155
   C        0.86662       -11.53611        -2.25029
   C        0.06646       -10.38304        -2.32550
   C        0.58809        -9.30633        -1.66023
   C        1.82291        -9.55532        -1.01659
   S        2.29905       -11.21165        -1.29439
   C        2.60022        -8.69321        -0.27211
   C        3.79867        -9.05132         0.35427
   S        4.44668       -10.68142         0.33357
   C        5.86096       -10.29769         1.28686
   C        5.83561        -8.93912         1.60573
   C        4.68937        -8.27242         1.08957
   O        4.69717        -6.96743         1.42789
   C        5.83077        -6.79222         2.15543
   N        6.11039        -5.50305         2.65186
   O        7.13529        -5.38357         3.30185
   O        5.32716        -4.60956         2.40480
   C        6.56330        -7.94535         2.30127
   C        6.76831       -11.33769         1.57491
   S        6.30527       -12.96062         1.15616
   C        7.82643       -13.61260         1.73836
   C        7.99471       -15.04124         1.86084
   O        8.96041       -15.58148         2.34947
   O        6.96243       -15.80895         1.41405
   C        8.66401       -12.57651         2.16471
   C        8.03580       -11.31099         2.10667
   N        9.94789       -12.69871         2.59753
   C       10.88822       -13.62830         2.18524
   C       10.92128       -14.23250         0.96509
   S       12.30049       -15.23165         0.77337
   C       12.86227       -14.82767         2.34764
   C       12.01930       -13.97671         2.99544
   N       12.25962       -13.41524         4.24843
   C       11.33530       -13.46895         5.29196
   C       10.14743       -14.05687         5.26785
   H        8.26841       -18.59016        -0.64325
   H        6.61706       -18.54124        -0.52724
   H        9.50141       -16.35458        -0.87345
   H        5.93699       -14.15773        -2.57765
   H        5.22817       -17.92067        -2.23931
   H        3.97657       -15.27497        -2.58310
   H        3.02402       -18.12795        -3.19566
   H        0.99493       -17.20806        -3.96553
   H       -0.72401       -15.37562        -4.34877
   H       -1.20048       -12.91348        -3.76300
   H       -0.86261       -10.36629        -2.86761
   H        0.11822        -8.33982        -1.61166
   H        2.27659        -7.66876        -0.15549
   H        7.48420        -8.03216         2.83880
   H        6.22960       -15.27234         1.08570
   H        8.52195       -10.40264         2.41295
   H       10.29160       -11.98324         3.22136
   H       10.21829       -14.12788         0.16450
   H       13.78381       -15.24175         2.70470
   H       13.22305       -13.48700         4.54651
   H       11.68143       -12.93283         6.16749
   H        9.79840       -14.62430         4.42363
   H        9.49127       -13.98686         6.11600
*
