# ORCA input file
# SCF done       -200.804957414928          0.000405470423
! CAM-B3LYP def2-SVP def2/J RIJCOSX Grid4 TightSCF
%maxcore 5000
%tddft
    Mode sTDDFT
    Ethresh 5.0
    maxcore 5000
end

%pal
  nprocs 6
  end
* xyz 0 1
   C      -14.35223         3.99423        12.00194
   C      -15.68237         4.00993        12.33927
   C      -16.18527         4.53349        13.54787
   N      -16.65597         4.95113        14.50843
   C      -16.72692         3.48442        11.55217
   N      -17.62994         3.06807        10.97642
   C      -13.25862         4.45398        12.84559
   C      -12.03160         4.15981        12.20188
   C      -10.81202         4.46470        12.75529
   C      -10.80101         5.08953        14.00652
   C      -12.03174         5.38296        14.64142
   C      -13.26484         5.07600        14.08144
   S      -11.78875         6.15722        16.17842
   C      -10.06177         6.07410        15.95115
   C       -9.68404         5.49856        14.78508
  Br       -8.92085         6.75618        17.27449
   C      -12.29652         3.49455        10.91028
   O      -11.46288         3.10847        10.11987
   C      -13.77534         3.45361        10.78258
   C      -14.46611         3.14913         9.65022
   C      -13.96027         2.49183         8.48093
   C      -13.08483         1.44094         8.57746
   S      -12.81909         0.60265         7.11706
   C      -13.88197         1.70048         6.28320
   C      -14.41833         2.68463         7.12125
   C      -15.21525         3.70848         6.55672
   C      -15.59773         4.87623         7.43206
   C      -17.02503         4.80204         7.98032
   C      -15.56792         3.65531         5.21202
   C      -16.50138         4.68046         4.62634
   C      -17.89794         4.09125         4.41784
   C      -15.07847         2.61559         4.37971
   C      -15.29804         2.31735         2.97964
   C      -14.59218         1.22265         2.57961
   S      -13.63825         0.48447         3.80250
   C      -14.20563         1.66430         4.93831
   C      -16.15290         2.98743         2.00799
   C      -16.88427         2.31608         1.11314
   C      -17.66080         2.95144         0.05505
   C      -17.08758         3.90320        -0.72985
   S      -18.04358         4.39596        -2.07423
   C      -19.28605         3.28486        -1.58906
   C      -18.98785         2.60663        -0.39832
   C      -19.99216         1.80086         0.19446
   C      -19.78755         1.35244         1.62051
   C      -20.55461         2.25158         2.59406
   C      -21.16875         1.52880        -0.49353
   C      -22.25949         0.70885         0.15031
   C      -23.53277         1.52500         0.38371
   C      -21.37794         2.07006        -1.79033
   C      -22.46056         1.90092        -2.74254
   C      -22.33536         2.75833        -3.80455
   S      -20.93967         3.74653        -3.77375
   C      -20.46172         3.01905        -2.27001
   C      -23.51371         0.92323        -2.71722
   C      -24.69791         1.03079        -3.37214
   C      -25.67464         0.01512        -3.34953
   C      -26.88846         0.08639        -3.97792
   C      -27.90197        -0.90694        -3.97952
   C      -29.00943        -0.57281        -4.69224
   C      -28.94039         0.70591        -5.29877
   S      -27.41404         1.47124        -4.92934
   C      -29.89332         1.32415        -6.07959
   C      -31.15698         0.81935        -6.45491
   C      -31.86488         1.67874        -7.23601
   C      -31.19675         2.89966        -7.51395
   S      -29.63205         2.93786        -6.75473
   C      -31.70401         3.92403        -8.27922
   C      -31.02752         5.12679        -8.54326
   S      -29.49133         5.38676        -7.90183
   C      -31.58083         6.17405        -9.34717
   C      -32.77120         6.21394        -9.98438
   S      -33.28641         7.60775       -10.94636
   C      -34.77755         6.77119       -11.30912
   C      -34.80063         5.57361       -10.72478
   O      -33.71398         5.24125        -9.99122
   H       -9.89507         4.22541        12.23983
   H      -14.17429         5.32331        14.60290
   H       -8.66064         5.36694        14.48456
   H      -15.52253         3.37499         9.63089
   H      -12.63359         1.06796         9.47517
   H      -15.47553         5.80807         6.87535
   H      -14.89059         4.92385         8.26312
   H      -17.75394         4.97616         7.19482
   H      -17.16985         5.55919         8.74837
   H      -17.23478         3.82797         8.41656
   H      -16.10291         5.04061         3.67849
   H      -16.58507         5.54555         5.27922
   H      -17.86403         3.25087         3.73120
   H      -18.56623         4.84615         4.00950
   H      -18.30621         3.74030         5.36252
   H      -14.55859         0.81482         1.58805
   H      -16.18701         4.06539         2.00416
   H      -16.87307         1.23294         1.11038
   H      -16.10214         4.31280        -0.61967
   H      -18.73457         1.42607         1.87547
   H      -20.08061         0.31032         1.75738
   H      -21.62774         2.17432         2.45207
   H      -20.26483         3.28916         2.44465
   H      -20.32265         1.97327         3.61965
   H      -21.92573         0.32114         1.10880
   H      -22.48358        -0.15961        -0.47021
   H      -23.97015         1.85838        -0.55309
   H      -23.31399         2.40477         0.98473
   H      -24.26962         0.92174         0.90996
   H      -22.98412         2.81990        -4.65595
   H      -23.33196         0.01362        -2.16607
   H      -24.94341         1.93125        -3.91844
   H      -25.45555        -0.88914        -2.79551
   H      -27.77348        -1.83548        -3.45104
   H      -29.87354        -1.20335        -4.80169
   H      -31.51157        -0.14919        -6.14794
   H      -32.84821         1.48160        -7.62648
   H      -32.68827         3.78232        -8.69840
   H      -30.95577         7.04718        -9.45928
   H      -35.52386         7.22469       -11.92516
   H      -35.57325         4.82744       -10.75701
*
