# ORCA input file
# SCF done       -178.729784740772          0.000933483375
! CAM-B3LYP def2-SVP def2/J RIJCOSX Grid4 TightSCF
%maxcore 5000
%tddft
    Mode sTDDFT
    Ethresh 5.0
    maxcore 5000
end

%pal
  nprocs 6
  end
* xyz 0 1
   C       -3.92785         6.35760         1.79105
   C       -2.72705         7.00932         1.62994
   C       -2.39170         8.21734         2.27260
   N       -2.04590         9.19881         2.76072
   C       -1.64561         6.58262         0.83962
   N       -0.70627         6.33013         0.22432
   C       -5.03399         6.84188         2.61355
   C       -6.06097         5.86843         2.61106
   C       -7.26375         6.05305         3.24405
   C       -7.47611         7.27542         3.89164
   C       -6.43666         8.23266         3.90951
   C       -5.20969         8.03433         3.28811
   S       -6.91045         9.67479         4.75328
   C       -8.48887         8.99094         5.04204
   C       -8.64720         7.73995         4.55031
  Br       -9.77885        10.00535         5.94793
   C       -5.63070         4.71730         1.79233
   O       -6.18305         3.63685         1.71812
   C       -4.34953         5.12059         1.17788
   C       -3.61648         4.40377         0.25786
   C       -4.00744         3.36508        -0.60793
   C       -5.29046         3.09926        -1.07523
   O       -5.57672         2.04544        -1.87622
   C       -4.50840         1.33862        -2.34084
   C       -3.17571         1.66337        -1.95774
   C       -2.25063         0.87503        -2.55757
   S       -2.99911        -0.28315        -3.59496
   C       -4.57083         0.30684        -3.22011
   O       -2.90850         2.65266        -1.06321
   C       -6.39426         3.95287        -0.79500
   C       -7.68929         3.54968        -0.80655
   C       -8.73332         4.40137        -0.37108
   O       -8.45682         5.67732         0.01763
   C      -10.07427         4.16054        -0.13036
   C      -11.13891         3.15359        -0.22870
   O      -11.13128         2.02897        -0.65545
   N      -12.24871         3.80148         0.30764
   C      -12.02706         5.11144         0.74027
   O      -12.85947         5.82262         1.24234
   C      -10.61389         5.33505         0.44324
   C       -9.58093         6.26128         0.52008
   C       -9.53336         7.58220         1.00618
   C       -8.38590         8.32282         0.92311
   C       -8.19378         9.61571         1.41360
   C       -6.98718        10.27060         1.28351
   C       -6.60711        11.52044         1.82435
   C       -5.31267        11.86890         1.56865
   C       -4.61169        10.92159         0.79372
   S       -5.64491         9.56671         0.40144
   C       -3.29826        10.94287         0.36231
   C       -2.28609        11.88280         0.65494
   C       -1.07658        11.56053         0.12306
   C       -1.06684        10.35081        -0.62167
   S       -2.67552         9.65771        -0.64186
   C        0.04120         9.80073        -1.21062
   C        0.14106         8.58658        -1.91599
   S        1.71751         8.06972        -2.49871
   C        1.14487         6.60124        -3.16436
   C       -0.21029         6.48188        -2.96052
   C       -0.76859         7.60014        -2.26115
   O       -2.09539         7.43502        -2.09435
   C       -2.38637         6.22847        -2.64792
   N       -3.70661         5.76603        -2.54280
   O       -3.96985         4.71500        -3.10705
   O       -4.49507         6.40586        -1.87301
   C       -1.29692         5.60082        -3.19512
   H       -8.02704         5.29126         3.22215
   H       -4.45311         8.80001         3.32937
   H       -9.55431         7.17045         4.63666
   H       -2.55746         4.62609         0.18130
   H       -1.18709         0.90106        -2.44542
   H       -5.44145        -0.13008        -3.66248
   H       -6.16053         4.97672        -0.54028
   H       -7.96323         2.53195        -1.03825
   H      -13.15223         3.35497         0.38103
   H      -10.43980         7.97533         1.44004
   H       -7.53395         7.85808         0.44068
   H       -8.99951        10.11622         1.93285
   H       -7.29497        12.11542         2.39878
   H       -4.84967        12.77599         1.91289
   H       -2.47191        12.75006         1.26167
   H       -0.18020        12.14055         0.25085
   H        0.96747        10.34971        -1.10354
   H        1.81858         5.92432        -3.64690
   H       -1.29443         4.64389        -3.67484
*
