# ORCA input file
# SCF done       -170.667209294312          0.000645943718
! CAM-B3LYP def2-SVP def2/J RIJCOSX Grid4 TightSCF
%maxcore 5000
%tddft
    Mode sTDDFT
    Ethresh 5.0
    maxcore 5000
end

%pal
  nprocs 6
  end
* xyz 0 1
   C       -2.41395        -0.76633         0.72080
   C       -2.84642        -1.90505         1.34899
   C       -1.99039        -2.95085         1.75400
   N       -1.34082        -3.82743         2.11065
   C       -4.19393        -2.23743         1.60955
   N       -5.25970        -2.61138         1.81276
   C       -1.04694        -0.50801         0.28959
   C       -1.04226         0.65272        -0.52069
   C        0.09984         1.14192        -1.10747
   C        1.29733         0.45731        -0.87701
   C        1.28499        -0.69591        -0.05590
   C        0.12923        -1.19351         0.53291
   S        2.87197        -1.38425         0.10310
   C        3.52114        -0.13428        -0.92486
   C        2.59920         0.75566        -1.36356
  Br        5.35408        -0.11995        -1.32092
   C       -2.40899         1.20573        -0.61156
   O       -2.73171         2.17150        -1.26880
   C       -3.24198         0.34229         0.27044
   C       -4.51014         0.57815         0.71993
   C       -5.40876         1.59824         0.33883
   O       -5.17869         2.44700        -0.69276
   C       -6.65170         1.90922         0.87427
   C       -7.61228         1.56736         1.93443
   O       -7.56252         0.74980         2.81258
   N       -8.66117         2.45871         1.71836
   C       -8.48487         3.34888         0.65903
   O       -9.27209         4.19359         0.32469
   C       -7.16946         2.98447         0.12155
   C       -6.22014         3.29225        -0.84214
   C       -6.17815         4.28182        -1.86143
   C       -5.07466         4.44684        -2.62692
   C       -4.97642         5.41392        -3.67079
   C       -3.88529         5.65898        -4.42128
   C       -2.55921         4.99560        -4.25783
   C       -3.95982         6.67673        -5.53073
   N       -5.17626         6.53095        -6.29670
   C       -5.62819         7.41834        -7.19585
   C       -5.06465         8.61794        -7.49861
   C       -5.65693         9.46660        -8.46264
   O       -5.08711        10.66568        -8.75276
   C       -6.78880         9.31917        -9.25039
   C       -7.89476         8.43431        -9.57578
   O       -8.19412         7.34133        -9.14662
   N       -8.60351         9.12774       -10.55232
   C       -8.07253        10.37251       -10.89740
   O       -8.54210        11.11736       -11.72169
   C       -6.89298        10.48832       -10.04577
   C       -5.82563        11.30511        -9.71626
   C       -5.46460        12.57289       -10.20945
   C       -4.37560        13.28547        -9.79388
   C       -4.04566        14.54733       -10.30502
   C       -2.96344        15.29506        -9.91179
   C       -2.59657        16.57397       -10.40133
   C       -1.47459        17.09212        -9.83524
   C       -0.88251        16.25204        -8.86010
   S       -1.81165        14.77492        -8.69212
   C        0.25039        16.49398        -8.11812
   C        1.08114        17.64831        -8.16573
   C        2.13401        17.61313        -7.31930
   C        2.21965        16.41856        -6.52927
   S        0.86753        15.35165        -6.94263
   C        3.14652        16.10468        -5.61380
   H        0.07150         2.02599        -1.72508
   H        0.17174        -2.07352         1.15227
   H        2.82687         1.58823        -2.00363
   H       -4.91741        -0.06830         1.48704
   H       -9.48939         2.46606         2.29675
   H       -7.06187         4.89207        -1.97360
   H       -4.23200         3.79962        -2.43141
   H       -5.87252         5.99281        -3.86073
   H       -2.51456         4.37006        -3.37326
   H       -1.77717         5.75184        -4.19238
   H       -2.34482         4.37940        -5.13190
   H       -3.08463         6.58047        -6.18727
   H       -3.93856         7.68608        -5.09994
   H       -5.64460         5.64205        -6.22787
   H       -6.53739         7.12567        -7.70451
   H       -4.15835         8.97123        -7.03420
   H       -9.44004         8.75874       -10.98056
   H       -6.12416        12.97133       -10.96713
   H       -3.73230        12.86271        -9.03296
   H       -4.68807        14.97080       -11.06620
   H       -3.17973        17.06737       -11.15891
   H       -1.05640        18.04961       -10.08869
   H        0.86514        18.46628        -8.82983
   H        2.86773        18.39266        -7.21597
   H        3.95182        16.78299        -5.39375
   H        3.11741        15.17588        -5.07440
*
