# ORCA input file
# SCF done       -180.870105164220          0.000716356563
! CAM-B3LYP def2-SVP def2/J RIJCOSX Grid4 TightSCF
%maxcore 5000
%tddft
    Mode sTDDFT
    Ethresh 5.0
    maxcore 5000
end

%pal
  nprocs 6
  end
* xyz 0 1
   C      -12.47722         5.48745         2.95423
   C      -12.40175         4.93207         4.20342
   C      -13.10594         5.42112         5.32551
   N      -13.63632         5.77236         6.28052
   C      -11.58830         3.84396         4.58869
   N      -10.95371         2.98710         5.01445
   C      -13.28718         6.63975         2.58794
   C      -12.99436         6.99408         1.24773
   C      -13.63142         8.02446         0.59896
   C      -14.60819         8.73740         1.30317
   C      -14.88221         8.38823         2.65033
   C      -14.23275         7.34996         3.30540
   S      -16.12101         9.39056         3.33259
   C      -16.26801        10.24628         1.82515
   C      -15.42087         9.81299         0.85654
  Br      -17.52098        11.62327         1.65735
   C      -11.94008         6.10761         0.72087
   O      -11.35109         6.24592        -0.32860
   C      -11.73795         5.07028         1.77019
   C      -11.08261         3.88261         1.64722
   C      -10.37210         3.35506         0.54320
   O      -10.09008         4.03618        -0.59583
   C       -9.84347         2.07864         0.41820
   C       -9.61244         0.81106         1.12363
   O       -9.91574         0.45218         2.22877
   N       -8.89233         0.05422         0.20064
   C       -8.62531         0.68642        -1.01442
   O       -8.00120         0.20113        -1.92174
   C       -9.24989         2.00113        -0.86014
   C       -9.40822         3.24665        -1.44772
   C       -8.83877         3.76291        -2.64824
   C       -8.65259         5.08598        -2.81871
   C       -7.89389         5.71962        -3.85644
   C       -7.92127         7.08031        -4.07134
   O       -7.14588         7.43152        -5.09699
   C       -6.59774         6.30832        -5.57536
   C       -6.99012         5.21117        -4.85858
   C       -6.49441         3.86213        -5.23060
   O       -6.47087         3.53187        -6.40441
   C       -5.99306         2.97340        -4.19689
   C       -5.60375         1.66131        -4.41289
   C       -5.24381         0.99342        -3.25412
   C       -5.37366         1.77304        -2.10907
   S       -5.84224         3.39588        -2.52176
   C       -5.30252         1.30315        -0.78352
   C       -5.80326         1.93047         0.32525
   C       -5.95153         1.36801         1.62338
   C       -6.64016         2.14607         2.50064
   C       -7.05070         3.38514         1.95551
   S       -6.50784         3.53699         0.29697
   C       -7.79486         4.39412         2.52745
   C       -8.32085         4.49391         3.83491
   C       -9.05458         5.62009         4.04262
   C       -9.16666         6.46393         2.90502
   S       -8.24685         5.79523         1.57413
   C       -9.92665         7.59780         2.80620
   C      -10.07328         8.42014         1.67351
   S       -9.20569         8.24293         0.15931
   C       -9.99024         9.57037        -0.58911
   C      -10.90199        10.14677         0.26681
   C      -10.93920         9.49045         1.53358
   O      -11.86076        10.05223         2.34417
   C      -12.40826        11.06079         1.61021
   N      -13.45911        11.79479         2.19679
   O      -13.92007        12.71096         1.54204
   O      -13.85496        11.44346         3.29068
   C      -11.87675        11.17671         0.35293
   H      -13.39178         8.26743        -0.42515
   H      -14.48153         7.11866         4.32733
   H      -15.37612        10.23690        -0.13050
   H      -11.11346         3.18693         2.47682
   H       -8.58951        -0.88891         0.39781
   H       -8.47616         3.02551        -3.34747
   H       -9.07995         5.76008        -2.08676
   H       -8.46713         7.85086        -3.56359
   H       -5.92638         6.38625        -6.40747
   H       -5.62310         1.22397        -5.39498
   H       -4.95621        -0.04111        -3.21583
   H       -4.92628         0.29657        -0.65706
   H       -5.56767         0.38915         1.85049
   H       -6.88628         1.86054         3.50712
   H       -8.15985         3.73206         4.57516
   H       -9.52568         5.87582         4.97531
   H      -10.49560         7.90519         3.67473
   H       -9.74573         9.84746        -1.59322
   H      -12.16090        11.89803        -0.38499
*
