# ORCA input file
# SCF done       -200.270920562689          0.000428761505
! CAM-B3LYP def2-SVP def2/J RIJCOSX Grid4 TightSCF
%maxcore 5000
%tddft
    Mode sTDDFT
    Ethresh 5.0
    maxcore 5000
end

%pal
  nprocs 6
  end
* xyz 0 1
   C       -7.42590         3.45409         5.49487
   C       -7.76596         3.37857         6.82638
   C       -7.38720         2.32342         7.67928
   N       -7.11301         1.49524         8.42679
   C       -8.53160         4.32488         7.53466
   N       -9.14722         5.04987         8.18104
   C       -6.62970         2.45744         4.77926
   C       -6.48967         2.87528         3.43374
   C       -5.79024         2.15415         2.49895
   C       -5.19548         0.95660         2.91264
   C       -5.33969         0.54592         4.25736
   C       -6.04987         1.27785         5.20306
   S       -4.52534        -0.96032         4.55626
   C       -4.00956        -1.01522         2.89179
   C       -4.42425         0.03776         2.14894
  Br       -2.97058        -2.45748         2.29083
   C       -7.19600         4.15811         3.25621
   O       -7.27495         4.79280         2.21478
   C       -7.76499         4.49543         4.55602
   C       -8.50350         5.62944         4.85049
   C       -8.86791         6.70358         4.05422
   S       -8.46767         6.92226         2.37167
   C       -9.26107         8.45936         2.29340
   C       -9.83641         8.81178         3.54127
   C       -9.62131         7.81882         4.53310
   C      -10.13323         8.00524         5.82093
   C      -10.84245         9.15993         6.10110
   C      -11.37307         9.37030         7.39548
   N      -11.81398         9.56431         8.43528
   C      -11.05533        10.14619         5.11560
   C      -10.55859         9.97393         3.85186
   C       -9.27201         9.23071         1.12398
   C       -8.77906         8.77332        -0.07174
   C       -8.64546         9.45591        -1.28578
   S       -8.28957         8.49819        -2.69799
   C       -8.20015         9.87280        -3.74983
   C       -8.49286        11.05359        -3.03444
   C       -8.71281        10.82551        -1.63946
   C       -8.91755        11.92479        -0.79603
   C       -8.99941        13.19430        -1.33347
   C       -9.20938        14.30069        -0.48052
   N       -9.38239        15.19882         0.21112
   C       -8.90164        13.40268        -2.72741
   C       -8.64554        12.35080        -3.56029
   C       -7.82528         9.67500        -5.09244
   C       -7.22236        10.60245        -5.89294
   C       -6.87556        10.35269        -7.24272
   C       -6.07206        11.18346        -8.00665
   O       -5.79286        10.92001        -9.32988
   C       -6.31989         9.77068        -9.83424
   C       -7.11867         8.89870        -9.04072
   C       -7.54088         7.80559        -9.72306
   S       -6.96883         7.82584       -11.34964
   C       -6.15244         9.32323       -11.10386
   O       -7.41183         9.17772        -7.74217
   C       -5.42681        12.34742        -7.50415
   C       -4.57369        13.10618        -8.23886
   C       -3.84202        14.24746        -7.77675
   C       -2.90861        14.81948        -8.62143
   C       -2.12033        15.90483        -8.19954
   C       -1.11261        16.62588        -8.83003
   C       -0.56458        16.46337       -10.20682
   C        0.20433        15.13655       -10.35082
   N        1.43696        15.19683        -9.58142
   C       -1.65393        16.57653       -11.28763
   N       -1.03367        16.67636       -12.59912
   C       -0.63547        17.59421        -7.87227
   C        0.35082        18.50727        -7.94884
   C        0.67277        19.41004        -6.80861
   C       -0.16861        19.20221        -5.59368
   C       -1.14082        18.27611        -5.52467
   C       -1.41485        17.44372        -6.63798
   C       -2.31155        16.41906        -6.84670
   C       -3.29642        15.84015        -6.01218
   C       -4.03173        14.79556        -6.46239
   C        0.62947        20.83587        -7.32649
   C       -0.32756        21.69976        -7.05162
   H       -5.70240         2.50114         1.48132
   H       -6.12877         0.91952         6.21555
   H       -4.19686         0.16372         1.10609
   H       -8.84958         5.70660         5.87142
   H       -9.98955         7.27100         6.59940
   H      -11.61388        11.03304         5.37409
   H      -10.72510        10.72829         3.09872
   H       -9.71878        10.20992         1.19190
   H       -8.47034         7.73416        -0.09918
   H       -8.99651        11.79973         0.27074
   H       -9.02631        14.40128        -3.11804
   H       -8.59137        12.50774        -4.62514
   H       -7.95218         8.67394        -5.48209
   H       -6.94823        11.55699        -5.48071
   H       -8.14888         7.00011        -9.36860
   H       -5.60316         9.78260       -11.89854
   H       -5.61208        12.59313        -6.47344
   H       -4.39205        12.81237        -9.26418
   H       -2.77163        14.40406        -9.60888
   H        0.15279        17.27129       -10.38914
   H        0.36327        14.95858       -11.42569
   H       -0.39712        14.32006        -9.94665
   H        2.08526        15.84932       -10.01049
   H        1.88495        14.28788        -9.56059
   H       -2.30134        17.43559       -11.04264
   H       -2.27512        15.67966       -11.28928
   H       -0.51727        17.54666       -12.67909
   H       -1.73986        16.67007       -13.32650
   H        0.94520        18.63511        -8.84332
   H        1.72181        19.21760        -6.52886
   H        0.05698        19.84108        -4.75296
   H       -1.71969        18.14933        -4.62115
   H       -3.44899        16.23732        -5.01914
   H       -4.78309        14.36059        -5.82244
   H        1.44432        21.10416        -7.98583
   H       -1.15428        21.44950        -6.40858
   H       -0.31705        22.69725        -7.45692
*
