# ORCA input file
# SCF done       -156.142196726506          0.000926495462
! CAM-B3LYP def2-SVP def2/J RIJCOSX Grid4 TightSCF
%maxcore 5000
%tddft
    Mode sTDDFT
    Ethresh 5.0
    maxcore 5000
end

%pal
  nprocs 6
  end
* xyz 0 1
   C        3.20594       -14.19481         6.89370
   S        2.82122       -12.61066         7.47177
   C        4.24037       -11.96601         6.71548
   O        4.55894       -10.65760         6.78093
   C        4.98287       -12.93700         6.08282
   C        4.35563       -14.21573         6.19021
   C        6.21462       -12.65776         5.39266
   S        6.43391       -11.14548         4.60140
   C        8.02450       -11.54839         4.04195
   C        8.38388       -12.82317         4.49116
   C        7.35076       -13.45507         5.26162
   C        7.58468       -14.72381         5.83627
   C        8.78944       -15.32522         5.63460
   F        9.03265       -16.53920         6.17335
   C        9.80581       -14.70412         4.87050
   F       10.98826       -15.33634         4.72985
   C        9.61591       -13.48187         4.30089
   C        8.77614       -10.65982         3.23331
   C        8.37240        -9.42116         2.86823
   C        9.13480        -8.60030         1.98144
   C        8.79646        -7.39238         1.49791
   C        7.56338        -6.63326         1.87611
   C        9.64574        -6.70858         0.44292
   N       10.44028        -7.64431        -0.31523
   C       11.73386        -7.91081        -0.03956
   C       12.29136        -9.14280        -0.19645
   C       13.64147        -9.46099         0.02258
   C       14.06830       -10.75104         0.22222
   C       15.38131       -11.23658         0.40971
   C       15.45099       -12.57100         0.68927
   C       14.19218       -13.20353         0.76857
   S       12.91863       -12.07554         0.40310
   C       13.89324       -14.50264         1.15202
   C       14.76912       -15.55743         1.46199
   C       14.13066       -16.69245         1.88153
   C       12.72699       -16.57806         1.93725
   S       12.23098       -14.99615         1.39683
   C       11.83127       -17.52420         2.40995
   C       10.47633       -17.27087         2.53687
   C        9.56441       -18.11288         3.15403
   C        8.19105       -17.81987         3.43224
   C        7.48122       -16.69146         3.06883
   C        6.15651       -16.44205         3.45805
   N        5.08208       -16.16673         3.76499
   C        7.96178       -15.61529         2.30221
   N        8.25347       -14.68621         1.68879
   C        7.64742       -18.92675         4.21957
   C        8.66512       -19.89266         4.39941
   C        9.89905       -19.42637         3.72555
   O       10.95123       -20.03380         3.66530
   C        8.47156       -21.05237         5.10491
   C        7.20719       -21.27239         5.66486
   C        6.19698       -20.30421         5.47870
   C        6.39394       -19.12944         4.76141
   S        4.71073       -20.77495         6.25053
   C        5.46210       -22.24709         6.80521
   C        6.75592       -22.38138         6.43344
  Br        4.46347       -23.46953         7.82145
   H        2.53506       -15.00067         7.11044
   H        3.91844       -10.17663         7.31690
   H        4.72418       -15.09133         5.68838
   H        6.83650       -15.20716         6.44185
   H       10.40583       -13.03604         3.71971
   H        9.72711       -11.03375         2.87773
   H        7.41914        -9.05925         3.22541
   H       10.06798        -9.04654         1.65924
   H        6.78178        -6.78005         1.12928
   H        7.78032        -5.56729         1.92526
   H        7.17922        -6.95391         2.83874
   H       10.31384        -5.97335         0.90309
   H        8.98208        -6.17331        -0.24640
   H        9.90564        -8.43557        -0.65481
   H       12.31805        -7.07469         0.32133
   H       11.63585        -9.96762        -0.44996
   H       14.37127        -8.66482         0.07843
   H       16.23584       -10.58723         0.33263
   H       16.36652       -13.10634         0.86592
   H       15.83641       -15.46068         1.37143
   H       14.62888       -17.60060         2.17041
   H       12.22583       -18.47031         2.74960
   H       10.11966       -16.31462         2.17183
   H        9.26936       -21.76817         5.22557
   H        5.58663       -18.42611         4.64721
   H        7.37010       -23.22549         6.68923
*
