# ORCA input file
# SCF done       -204.241309612533          0.000734567247
! CAM-B3LYP def2-SVP def2/J RIJCOSX Grid4 TightSCF
%maxcore 5000
%tddft
    Mode sTDDFT
    Ethresh 5.0
    maxcore 5000
end

%pal
  nprocs 6
  end
* xyz 0 1
   C        3.80094        14.89318        -3.22653
   C        2.45362        15.07715        -3.08539
   F        1.95533        15.43044        -1.88382
   C        1.55669        14.91242        -4.14822
   C        2.04447        14.55161        -5.37405
   C        3.42386        14.34529        -5.57522
   C        4.31938        14.52181        -4.48173
   C        5.71008        14.32921        -4.66183
   C        6.18205        13.95965        -5.88981
   C        5.28132        13.77354        -6.97629
   C        3.93856        13.96548        -6.83695
   C        6.05045        13.35752        -8.16731
   O        5.63362        13.17045        -9.29064
   C        7.44473        13.17603        -7.69377
   C        7.54056        13.69734        -6.36550
   C        8.69110        14.08402        -5.71062
   C        8.71514        14.68105        -4.43803
   N        8.81015        15.17031        -3.40272
   C        9.97397        14.04443        -6.28374
   N       11.04020        14.04873        -6.71243
   C        8.35824        12.58799        -8.54855
   C        9.55013        11.91186        -8.30621
   C        9.99333        11.29427        -7.14932
   C       11.21954        10.59723        -7.03650
   C       11.39350         9.94704        -5.85184
   C       10.29847        10.07064        -4.97168
   S        9.07059        11.10140        -5.67834
   C       10.13391         9.45310        -3.74372
   C       11.05551         8.61365        -3.08064
   C       10.57924         8.08484        -1.92023
   C        9.25440         8.47009        -1.59436
   S        8.65132         9.56875        -2.82448
   C        8.57693         7.98625        -0.49948
   C        7.28155         8.21207        -0.01866
   S        6.78054         7.19865         1.34162
   C        6.23075         9.06483        -0.33983
   C        5.97959        10.23484        -1.24318
   N        6.73692        11.36545        -0.76000
   C        6.67049        12.53891        -1.61424
   C        7.33926        13.71030        -0.91277
   O        4.58947        10.50057        -1.10490
   C        4.05985         9.89357         0.05902
   O        2.85345         9.26078        -0.22477
   C        5.11371         8.91206         0.47024
   C        5.20001         7.93277         1.44415
   C        4.20273         7.56260         2.36394
   C        4.38505         6.64125         3.35127
   C        3.44489         6.21057         4.30598
   S        4.05575         5.39229         5.71456
   C        2.49583         5.26341         6.45388
   C        1.51256         5.80330         5.60300
   C        2.04275         6.32847         4.38336
   C        1.15863         6.82760         3.40807
   C       -0.18184         6.84583         3.67232
   F       -1.03513         7.31424         2.74818
   C       -0.69728         6.36998         4.89714
   F       -2.02176         6.41698         5.11078
   C        0.12833         5.84530         5.84936
   C        2.31013         4.70398         7.73273
   C        3.30444         4.20322         8.51224
   C        3.11528         3.66963         9.80682
   S        1.55579         3.63554        10.60782
   C        4.05402         3.12782        10.65744
   C        5.50576         2.78506        10.57283
   N        5.72046         1.71628         9.62423
   C        7.12272         1.41596         9.39193
   C        7.25542         0.27002         8.40187
   O        5.83610         2.33094        11.87941
   C        4.69103         2.14120        12.69174
   O        4.86722         2.80655        13.90557
   C        3.55346         2.70891        11.89481
   C        2.20350         2.90829        12.05660
   C        1.31979         2.61943        13.14967
   C        1.72101         2.23657        14.36052
   H        4.46283        15.03429        -2.38636
   H        0.50396        15.07381        -3.97813
   H        1.37286        14.41866        -6.20897
   H        6.36432        14.47033        -3.81762
   H        3.27331        13.82892        -7.67641
   H        8.04230        12.61258        -9.58835
   H       10.18818        11.75305        -9.16698
   H       11.93856        10.60707        -7.83566
   H       12.26666         9.37300        -5.60065
   H       12.03686         8.42213        -3.47414
   H       11.13546         7.41807        -1.28533
   H        9.14178         7.27101         0.08835
   H        6.14071        10.02634        -2.31748
   H        7.70388        11.09891        -0.60550
   H        5.61038        12.74173        -1.78406
   H        7.14508        12.35422        -2.59421
   H        6.83651        13.91619         0.02815
   H        7.31467        14.59900        -1.53646
   H        8.38150        13.47830        -0.70586
   H        3.90641        10.66825         0.83913
   H        2.34778         9.83556        -0.81102
   H        3.27183         8.09466         2.24871
   H        5.37976         6.22241         3.45931
   H        1.50480         7.16751         2.44742
   H       -0.29021         5.46455         6.76614
   H        1.29906         4.68486         8.11551
   H        4.32404         4.21433         8.14656
   H        6.15160         3.66589        10.36768
   H        5.25139         1.92781         8.74938
   H        7.54795         1.13421        10.35779
   H        7.67291         2.30056         9.02324
   H        6.70520        -0.59470         8.76160
   H        8.30082        -0.00059         8.28100
   H        6.85536         0.55544         7.43084
   H        4.55414         1.05614        12.87686
   H        5.80140         2.74595        14.13709
   H        0.26723         2.74596        12.93087
   H        2.76433         2.14594        14.60413
   H        1.01073         2.02973        15.14169
*
