# ORCA input file
# SCF done       -187.372665608459          0.000599117092
! CAM-B3LYP def2-SVP def2/J RIJCOSX Grid4 TightSCF
%maxcore 5000
%tddft
    Mode sTDDFT
    Ethresh 5.0
    maxcore 5000
end

%pal
  nprocs 6
  end
* xyz 0 1
   C       -3.77339         2.12622         2.93478
   C       -4.84777         1.79960         2.14832
   C       -6.09719         2.44823         2.21168
   N       -7.13142         2.94663         2.22399
   C       -4.85322         0.71969         1.24097
   N       -4.93059        -0.17741         0.52822
   C       -3.76236         3.10549         4.01293
   C       -2.55285         2.96123         4.73593
   C       -2.24642         3.74245         5.82286
   C       -3.17603         4.71336         6.21225
   C       -4.37844         4.85304         5.47928
   C       -4.69054         4.06045         4.38111
   S       -5.37717         6.11991         6.12494
   C       -4.18420         6.43839         7.35595
   C       -3.09307         5.63903         7.28817
  Br       -4.49134         7.79496         8.61433
   C       -1.73396         1.89339         4.12374
   O       -0.64618         1.51466         4.50564
   C       -2.48786         1.46098         2.92798
   C       -1.96931         0.75232         1.87882
   C       -0.74792         0.04248         1.85122
   S        0.17413         0.06943         0.36522
   C        1.47032        -0.75455         1.12110
   C        1.22066        -1.08628         2.41882
   C        2.17563        -1.83326         3.28728
   C       -0.07034        -0.66282         2.84472
   C       -0.64003        -1.05564         4.10577
   C       -1.94079        -1.36252         4.28512
   C       -2.49304        -1.76624         5.53456
   C       -3.78753        -2.11734         5.69592
   C       -4.33662        -2.50949         6.95760
   C       -5.59519        -2.90652         7.20995
   C       -6.68692        -3.04422         6.19899
   C       -5.97981        -3.31087         8.61773
   N       -5.75246        -4.72335         8.83199
   C       -4.60784        -5.23141         9.31403
   C       -4.28911        -6.55733         9.30002
   C       -3.11289        -7.07050         9.86298
   C       -2.76310        -8.39863         9.86129
   C       -1.59292        -8.98022        10.39811
   C       -1.51805       -10.33339        10.24500
   C       -2.62889       -10.89504         9.57973
   S       -3.77314        -9.65457         9.14973
   C       -2.85248       -12.23027         9.27699
   C       -2.01670       -13.33062         9.53740
   C       -2.53018       -14.52392         9.10968
   C       -3.79299       -14.42005         8.49415
   S       -4.31827       -12.75721         8.47506
   C       -4.55075       -15.46398         7.98432
   C       -5.78202       -15.29036         7.37791
   C       -6.62803       -16.25750         6.86026
   C       -7.64742       -15.86016         5.87318
   O       -7.98191       -14.73120         5.57363
   C       -8.14553       -17.12590         5.28794
   C       -9.03215       -17.31334         4.26959
   C       -9.32532       -18.63078         3.84714
   C       -8.68628       -19.72759         4.49232
   C       -8.97367       -21.03734         4.06082
   C       -9.85651       -21.24860         3.03888
   C      -10.48929       -20.16389         2.40370
   C      -10.23040       -18.88106         2.79836
   F      -11.35247       -20.39923         1.40148
   F      -10.12829       -22.49857         2.63014
   C       -7.77876       -19.50022         5.55444
   C       -7.51660       -18.21757         5.94999
   C       -6.66182       -17.68088         7.01341
   C       -6.16830       -18.42660         8.06324
   C       -5.61741       -17.88581         9.23958
   N       -5.20320       -17.51237        10.24463
   C       -6.25874       -19.82805         8.14107
   N       -6.27756       -20.97231         8.24964
   H       -1.31789         3.61156         6.35601
   H       -5.61493         4.20739         3.84741
   H       -2.26195         5.70018         7.96673
   H       -2.48302         0.81639         0.92525
   H        2.36124        -0.95609         0.55817
   H        3.09673        -2.04000         2.74914
   H        1.73709        -2.77702         3.60891
   H        2.41138        -1.24726         4.17456
   H        0.05251        -1.16899         4.92805
   H       -2.62070        -1.31955         3.44310
   H       -1.82418        -1.78084         6.38587
   H       -4.44006        -2.09760         4.83458
   H       -3.64150        -2.46801         7.78843
   H       -6.32336        -2.93736         5.18296
   H       -7.45047        -2.28468         6.37316
   H       -7.16823        -4.01774         6.29024
   H       -7.03932        -3.10315         8.79270
   H       -5.38750        -2.75910         9.35091
   H       -6.35789        -5.35844         8.33098
   H       -3.93886        -4.51653         9.77429
   H       -4.96912        -7.25911         8.83585
   H       -2.42411        -6.37822        10.32989
   H       -0.84110        -8.38178        10.88226
   H       -0.70056       -10.93769        10.59408
   H       -1.06480       -13.22435        10.02603
   H       -2.04175       -15.47451         9.22788
   H       -4.11618       -16.44959         8.06078
   H       -6.10598       -14.26952         7.19449
   H       -9.50363       -16.46946         3.78916
   H       -8.49941       -21.88006         4.53919
   H      -10.72310       -18.06019         2.30106
   H       -7.30880       -20.35086         6.02127
*
