# ORCA input file
# SCF done       -157.799184223029          0.000727557589
! CAM-B3LYP def2-SVP def2/J RIJCOSX Grid4 TightSCF
%maxcore 5000
%tddft
    Mode sTDDFT
    Ethresh 5.0
    maxcore 5000
end

%pal
  nprocs 6
  end
* xyz 0 1
   C        5.49544         0.11520        -8.46299
   C        6.40874        -0.20558        -7.53775
   C        7.50646         0.59312        -7.07074
   C        8.27010         0.00020        -6.12812
   C        7.84688        -1.31132        -5.76892
   S        6.42042        -1.75918        -6.68774
   C        8.42813        -2.15314        -4.85543
   C        9.57971        -1.92694        -4.05865
   C        9.92119        -2.96567        -3.25471
   C        9.06022        -4.09066        -3.35885
   S        7.78181        -3.75388        -4.53318
   C        9.15883        -5.27396        -2.69315
   N        8.27142        -6.28849        -2.87108
   C        8.30538        -7.51254        -2.30647
   S        9.58906        -7.97475        -1.23342
   C        8.86658        -9.55081        -1.07841
   N        9.50924       -10.47445        -0.26462
   O        9.01925       -11.59047        -0.16288
   O       10.53368       -10.10335         0.29474
   C        7.71380        -9.69493        -1.80486
   C        7.35891        -8.53640        -2.52164
   C        6.20581        -8.38934        -3.35094
   C        5.31937        -9.38439        -3.62545
   C        4.18048        -9.23089        -4.43337
   C        3.31364       -10.25703        -4.71576
   C        2.14026       -10.21379        -5.50736
   C        1.48707       -11.40524        -5.61341
   C        2.10771       -12.46190        -4.91302
   S        3.55117       -11.88647        -4.10428
   C        1.72810       -13.78542        -4.82338
   C        0.61791       -14.44087        -5.39878
   C        0.54494       -15.77283        -5.12108
   C        1.59904       -16.25317        -4.30661
   S        2.68882       -14.92271        -3.90136
   C        1.82311       -17.52499        -3.86335
   N        2.89429       -17.82825        -3.08916
   C        3.25252       -19.03103        -2.59415
   S        2.31082       -20.45476        -2.90388
   C        3.44700       -21.38174        -1.96819
   N        3.19653       -22.74444        -1.84208
   O        3.98074       -23.41562        -1.19125
   O        2.19591       -23.17242        -2.40341
   C        4.47607       -20.63589        -1.45763
   C        4.39350       -19.27201        -1.80014
   C        5.31374       -18.25009        -1.41733
   C        6.43524       -18.42963        -0.66866
   C        7.30096       -17.37527        -0.32515
   C        8.44252       -17.51587         0.41866
   C        9.34500       -16.48368         0.79030
   C       10.40241       -16.90590         1.53002
   C       10.40522       -18.29995         1.79266
   S        9.00288       -19.05401         1.05739
   C       11.33181       -19.02244         2.50434
   C       12.50609       -18.52883         3.14150
   C       13.23708       -19.47398         3.77081
   C       12.69596       -20.80065         3.68091
   S       11.19573       -20.75341         2.74099
   C       13.19796       -21.92807         4.20157
   H        5.52645         1.07101        -8.95554
   H        4.70907        -0.56198        -8.74172
   H        7.67230         1.57917        -7.46704
   H        9.13085         0.45457        -5.67034
   H       10.12176        -1.00007        -4.10938
   H       10.76452        -2.97188        -2.58771
   H        9.96143        -5.44810        -1.99279
   H        7.51212        -6.10449        -3.51887
   H        7.15649       -10.61298        -1.80028
   H        6.02447        -7.41659        -3.79046
   H        5.48147       -10.37015        -3.21187
   H        3.96789        -8.25948        -4.85947
   H        1.81730        -9.30006        -5.97459
   H        0.58205       -11.55278        -6.17533
   H       -0.09526       -13.90996        -6.00330
   H       -0.22928       -16.42873        -5.47625
   H        1.15473       -18.33270        -4.11834
   H        3.50581       -17.04992        -2.86215
   H        5.25212       -21.07537        -0.85901
   H        5.10139       -17.24180        -1.75225
   H        6.69840       -19.41488        -0.30997
   H        7.05696       -16.37808        -0.66845
   H        9.17606       -15.46241         0.49707
   H       11.17911       -16.25884         1.89588
   H       12.76409       -17.48504         3.10693
   H       14.15261       -19.29075         4.30494
   H       14.11338       -21.91183         4.76635
   H       12.70919       -22.87654         4.07413
*
