# ORCA input file
# SCF done       -189.360895049868          0.000658491517
! CAM-B3LYP def2-SVP def2/J RIJCOSX Grid4 TightSCF
%maxcore 5000
%tddft
    Mode sTDDFT
    Ethresh 5.0
    maxcore 5000
end

%pal
  nprocs 6
  end
* xyz 0 1
   N        2.64794        12.40126         1.60251
   C        2.04048        12.22092         2.78454
   S        1.82134        13.54908         3.86748
   C        1.01961        12.48658         4.99599
   N        0.57727        13.04820         6.19534
   O        0.02678        12.31769         6.99710
   O        0.78326        14.24187         6.34616
   C        0.93034        11.19798         4.55328
   C        1.51129        11.01169         3.28063
   C        1.59614         9.78606         2.55905
   C        1.09723         8.58189         2.93356
   C        1.30373         7.44491         2.10833
   N        1.99251         7.53899         0.97276
   C        2.03819         6.29585         0.46558
   C        1.33830         5.33445         1.32751
   C        1.41681         3.98504         0.75006
   O        0.96748         2.94290         1.18591
   C        2.18420         4.20271        -0.48870
   C        2.54482         5.62285        -0.62459
   N        3.24980         5.83427        -1.76158
   C        3.34417         4.65169        -2.32773
   C        2.70140         3.59093        -1.58858
   C        0.84693         6.06304         2.38684
   C        0.07726         5.66020         3.51349
   C       -0.22529         4.36316         3.75643
   C       -0.97752         3.84377         4.86358
   C       -0.96382         2.47482         5.06801
   C       -1.64916         1.91440         6.15650
   C       -1.76667         0.59304         6.58594
   C       -1.14542        -0.59718         5.94123
   C       -0.21435        -1.35494         6.90885
   N        0.79456        -2.05658         6.14361
   C       -2.22434        -1.51873         5.34222
   N       -1.61174        -2.56267         4.53507
   C       -2.59495         0.61141         7.76530
   C       -3.01231        -0.37054         8.58854
   C       -3.90547        -0.08473         9.75057
   C       -4.17849         1.36315         9.99226
   C       -3.75239         2.33819         9.16468
   C       -2.96995         2.01143         8.03427
   C       -2.39600         2.78905         7.04652
   C       -2.42639         4.18037         6.79983
   C       -1.73178         4.68424         5.74669
   C       -5.17821        -0.83945         9.44844
   C       -6.23099        -0.25251         8.86175
   C       -7.45104        -0.92491         8.55724
   N       -7.66874        -2.20296         8.84064
   C       -8.92684        -2.46017         8.43596
   C       -9.55971        -1.26490         7.85962
   C      -10.93026        -1.55901         7.43031
   O      -11.73627        -0.80198         6.92035
   C      -11.07821        -2.98215         7.77120
   C       -9.83601        -3.49472         8.38165
   N       -9.96293        -4.80427         8.69686
   C      -11.18185        -5.12950         8.32770
   C      -11.93083        -4.04235         7.74278
   C       -8.61662        -0.27023         7.92498
   C       -8.65523         1.09384         7.52139
   C       -9.75480         1.66914         6.99401
   N       -9.88521         2.97235         6.59011
   C       -9.01688         4.01208         6.64162
   S       -7.45371         3.92681         7.38708
   C       -7.17997         5.60092         7.01697
   N       -5.96390         6.14700         7.39952
   O       -5.72828         7.30652         7.10522
   O       -5.19860         5.41056         8.01401
   C       -8.23571         6.18222         6.36187
   C       -9.29686         5.29488         6.13699
   C      -10.52799         5.64258         5.45147
   C      -10.92483         6.88076         5.17782
   H        3.02140        13.29946         1.35350
   H        2.80577        11.61997         0.98897
   H        0.46579        10.42494         5.13689
   H        2.11819         9.79496         1.61164
   H        0.55200         8.45794         3.85592
   H        3.86765         4.53853        -3.26135
   H        2.66488         2.55942        -1.87909
   H       -0.24807         6.43964         4.18786
   H        0.15444         3.61864         3.06848
   H       -0.40397         1.84422         4.39290
   H       -0.50998        -0.25365         5.11925
   H       -0.81655        -2.01888         7.55036
   H        0.29295        -0.63158         7.55666
   H        0.33460        -2.71627         5.52233
   H        1.42312        -2.56501         6.75510
   H       -2.93356        -0.89277         4.77328
   H       -2.78629        -2.00563         6.14386
   H       -1.14601        -2.14913         3.73287
   H       -2.32107        -3.19843         4.18611
   H       -2.76172        -1.40786         8.42486
   H       -3.46305        -0.52736        10.65343
   H       -4.78488         1.58719        10.85662
   H       -3.99626         3.37462         9.34438
   H       -3.01167         4.81778         7.44466
   H       -1.76099         5.74463         5.55025
   H       -5.21746        -1.89116         9.69017
   H       -6.17151         0.79764         8.61220
   H      -11.54186        -6.13336         8.47246
   H      -12.93777        -4.10155         7.37914
   H       -7.74525         1.65355         7.65473
   H      -10.65253         1.08039         6.85466
   H      -10.78487         3.20476         6.18838
   H       -8.21845         7.21046         6.05225
   H      -11.15402         4.81682         5.13601
   H      -10.35770         7.74713         5.46845
   H      -11.84555         7.06681         4.65401
*
