# ORCA input file
# SCF done       -216.734948770901          0.000691124243
! CAM-B3LYP def2-SVP def2/J RIJCOSX Grid4 TightSCF
%maxcore 5000
%tddft
    Mode sTDDFT
    Ethresh 5.0
    maxcore 5000
end

%pal
  nprocs 6
  end
* xyz 0 1
   C       -4.37873         0.04012         0.31657
   C       -5.30340         0.53014         1.19871
   C       -6.53618        -0.09410         1.47550
   N       -7.55469        -0.55682         1.73368
   C       -5.11983         1.70306         1.95894
   N       -5.01722         2.64856         2.60273
   C       -4.49119        -1.18204        -0.46413
   C       -3.24782        -1.44312        -1.09452
   C       -3.03593        -2.54966        -1.87926
   C       -4.11400        -3.40554        -2.11089
   C       -5.36389        -3.11079        -1.51444
   C       -5.56845        -2.02294        -0.67695
   S       -6.55798        -4.29001        -1.95120
   C       -5.39741        -5.15196        -2.90503
   C       -4.17187        -4.58813        -2.90129
   C       -2.31279        -0.34312        -0.81034
   O       -1.12619        -0.29943        -1.05005
   C       -3.12008         0.66474        -0.06370
   C       -2.78169         1.96869         0.03545
   C       -1.79510         2.57517        -0.84850
   C       -0.77706         3.40208        -0.36218
   C       -0.67053         3.52794         1.13851
   C       -1.40641         4.75258         1.68437
   C        0.11716         4.00812        -1.24969
   C        1.16848         4.97411        -0.76607
   C        0.72308         6.42484        -0.97747
   C        0.01050         3.73437        -2.61970
   C        1.00542         4.22185        -3.63985
   C        2.09834         3.16897        -3.84247
   C       -1.00920         2.91608        -3.08290
   C       -1.93468         2.34468        -2.22829
   C       -3.04341         1.53426        -2.76221
   C       -2.79809         0.50496        -3.63023
   C       -3.85543        -0.32958        -4.06635
   C       -3.88806        -1.42671        -4.91677
   C       -2.83380        -1.91447        -5.85721
   C       -2.40858        -0.77422        -6.82345
   N       -3.49018        -0.06203        -7.46534
   C       -1.59701        -2.48524        -5.14739
   N       -0.57571        -2.85372        -6.11516
   C       -5.25538        -1.89319        -4.93899
   C       -5.83442        -2.93085        -5.57231
   C       -7.30931        -3.12201        -5.57450
   C       -8.04268        -2.23764        -4.62234
   C       -7.44062        -1.25528        -3.92436
   C       -6.05515        -1.02013        -4.07423
   C       -5.19257        -0.08023        -3.54349
   C       -5.42335         1.02828        -2.69961
   C       -4.38117         1.82177        -2.34393
   C       -7.70525        -4.56565        -5.38504
   C       -7.97030        -5.42473        -6.35669
   C       -7.89998        -5.16178        -7.81026
   C       -9.04929        -4.86261        -8.54550
   C      -10.35909        -4.82719        -7.79575
   C      -10.78996        -3.42071        -7.37853
   C       -8.96093        -4.63869        -9.92495
   C      -10.15368        -4.16681       -10.71072
   C      -10.10244        -2.64852       -10.92098
   C       -7.73393        -4.83235       -10.58747
   C       -7.65384        -4.75242       -12.09247
   C       -6.25926        -4.88876       -12.69362
   C       -6.61000        -5.12353        -9.84442
   C       -6.65836        -5.24345        -8.45439
   C       -5.45948        -5.51844        -7.70357
   C       -4.19789        -5.10642        -7.97585
   C       -3.67168        -4.15909        -8.94501
   C       -4.32215        -3.05636        -9.43739
   C       -3.77736        -2.19028       -10.40686
   N       -3.40478        -1.49954       -11.24428
   C       -5.59146        -2.63793        -8.99135
   N       -6.57797        -2.19899        -8.59774
   C       -2.25794        -4.46049        -9.11401
   C       -1.87038        -5.40432        -8.12444
   C       -3.04126        -5.75600        -7.30203
   O       -3.07476        -6.43328        -6.29777
   C       -0.57786        -5.86003        -8.00783
   C        0.37414        -5.36280        -8.90265
   C       -0.02201        -4.41734        -9.88061
   C       -1.32661        -3.95520       -10.00100
   S        1.31887        -3.93901       -10.87028
   C        2.37572        -4.98351        -9.98662
   C        1.76171        -5.66360        -8.99376
   H       -2.06647        -2.73385        -2.31210
   H       -6.53529        -1.85100        -0.23332
   H       -5.70295        -6.04587        -3.41301
   H       -3.33346        -4.99154        -3.43975
   H       -3.34348         2.63127         0.68145
   H        0.37502         3.56741         1.44721
   H       -1.09869         2.62932         1.58871
   H       -0.93546         5.67228         1.34975
   H       -1.39528         4.73814         2.77174
   H       -2.44283         4.75972         1.35531
   H        2.10506         4.80359        -1.29831
   H        1.36911         4.82662         0.29358
   H        0.55195         6.63565        -2.03020
   H        1.48377         7.10890        -0.60692
   H       -0.20585         6.62152        -0.44837
   H        1.46332         5.16451        -3.34846
   H        0.49081         4.38290        -4.58964
   H        2.62974         2.98405        -2.91155
   H        2.81319         3.50299        -4.59129
   H        1.66089         2.23005        -4.17295
   H       -1.10169         2.73539        -4.14462
   H       -1.78382         0.30522        -3.93975
   H       -3.26786        -2.72089        -6.46363
   H       -1.76972        -1.20275        -7.59939
   H       -1.81928        -0.04229        -6.26984
   H       -4.05458         0.41869        -6.77206
   H       -4.10444        -0.69604        -7.96514
   H       -1.92205        -3.33712        -4.52714
   H       -1.16848        -1.72780        -4.48909
   H        0.27345        -3.13193        -5.63635
   H       -0.88741        -3.64231        -6.67207
   H       -5.26282        -3.63760        -6.15534
   H       -7.60166        -2.84197        -6.60518
   H       -9.10105        -2.42402        -4.51831
   H       -8.00792        -0.63499        -3.24540
   H       -6.42719         1.24094        -2.36090
   H       -4.54442         2.69356        -1.72575
   H       -7.78565        -4.87751        -4.35361
   H       -8.25030        -6.44167        -6.09966
   H      -10.24955        -5.42958        -6.89202
   H      -11.14831        -5.28504        -8.39510
   H       -9.98380        -2.91607        -6.85375
   H      -11.65016        -3.48012        -6.71515
   H      -11.06698        -2.82087        -8.23945
   H      -11.07825        -4.41048       -10.19068
   H      -10.18576        -4.66246       -11.68219
   H       -9.99752        -2.13318        -9.97050
   H      -11.01479        -2.30918       -11.40633
   H       -9.25784        -2.35900       -11.53989
   H       -8.06735        -3.79837       -12.42223
   H       -8.28939        -5.54132       -12.50872
   H       -5.59749        -4.10493       -12.32988
   H       -6.32579        -4.79270       -13.77516
   H       -5.82095        -5.85946       -12.47179
   H       -5.66604        -5.29833       -10.33442
   H       -5.56109        -6.17171        -6.84195
   H       -0.30943        -6.57421        -7.24423
   H       -1.58383        -3.23919       -10.76387
   H        3.40957        -5.02532       -10.26887
   H        2.26007        -6.35771        -8.34145
*
