# ORCA input file
# SCF done       -187.555744457582          0.000533280761
! CAM-B3LYP def2-SVP def2/J RIJCOSX Grid4 TightSCF
%maxcore 5000
%tddft
    Mode sTDDFT
    Ethresh 5.0
    maxcore 5000
end

%pal
  nprocs 6
  end
* xyz 0 1
   C       -6.82714         0.88625         5.23883
   C       -7.40664         0.07269         4.29977
   C       -7.73770        -1.28041         4.51087
   N       -8.03418        -2.38351         4.62769
   C       -7.72544         0.49700         2.99526
   N       -7.99677         0.79111         1.91845
   C       -6.41800         0.50770         6.58819
   C       -5.79673         1.61965         7.21999
   C       -5.29948         1.55638         8.49850
   C       -5.42033         0.34544         9.18897
   C       -6.04369        -0.75405         8.55288
   C       -6.54621        -0.69332         7.25801
   S       -6.08496        -2.14204         9.59389
   C       -5.28280        -1.25782        10.84498
   C       -4.99462         0.01815        10.50704
   C       -5.80822         2.75632         6.28753
   O       -5.39261         3.89087         6.43501
   C       -6.46846         2.27308         5.06801
   C       -6.64991         3.13000         4.03035
   S       -6.06678         4.73611         4.10920
   C       -6.55473         5.23169         2.46888
   C       -7.35594         6.30012         2.22277
   S       -7.64626         6.51665         0.54596
   C       -6.66414         5.15342         0.16332
   C       -6.14007         4.56882         1.27330
   S       -5.05153         3.18561         1.31909
   C       -5.11721         2.66669        -0.39158
   C       -4.38627         3.33689        -1.32121
   C       -4.46480         2.92754        -2.67675
   C       -3.88455         3.43061        -3.82596
   C       -3.01190         4.63209        -3.99098
   C       -3.82651         5.91490        -3.74409
   N       -4.83442         6.05319        -4.78134
   C       -1.75723         4.58129        -3.10123
   N       -0.66743         5.28425        -3.75739
   C       -4.33506         2.59310        -4.91579
   C       -4.07747         2.64654        -6.23512
   C       -4.65113         1.64528        -7.17758
   C       -5.55570         0.63585        -6.55152
   C       -5.81528         0.60802        -5.23162
   C       -5.22255         1.56014        -4.36706
   C       -5.29861         1.77299        -3.00476
   C       -6.01943         1.10581        -1.98740
   C       -5.93721         1.54886        -0.70581
   C       -3.49023         0.99911        -7.90437
   C       -3.00344        -0.18210        -7.56097
   S       -1.64596        -0.92717        -8.40487
   C       -1.61241        -2.49444        -7.57773
   C       -1.31527        -2.65712        -6.26088
   S       -1.32891        -4.30865        -5.79088
   C       -1.73126        -4.80002        -7.38506
   C       -1.86013        -3.74040        -8.22678
   S       -2.28181        -3.88612        -9.94250
   C       -3.63237        -2.82143        -9.92769
   C       -4.24722        -2.17923       -10.94803
   C       -4.05518        -2.17738       -12.38191
   C       -3.56319        -3.20356       -13.14395
   C       -3.37769        -3.13366       -14.54006
   N       -3.19456        -3.12499       -15.67311
   C       -3.29801        -4.49052       -12.63675
   N       -3.14266        -5.56852       -12.27384
   C       -4.62970        -0.93549       -12.88824
   C       -5.32458        -0.28661       -11.83431
   C       -5.16891        -1.06500       -10.59722
   O       -5.64367        -0.83855        -9.50486
   C       -6.00616         0.89292       -12.01679
   C       -5.99777         1.46270       -13.29332
   C       -5.29430         0.81218       -14.33562
   C       -4.60853        -0.38346       -14.15413
   S       -5.41780         1.69549       -15.82360
   C       -6.39203         2.90076       -15.05596
   C       -6.61755         2.66172       -13.74568
   H       -4.83028         2.41465         8.95392
   H       -7.01358        -1.55728         6.81497
   H       -5.07347        -1.75675        11.77121
   H       -4.49828         0.71566        11.15722
   H       -7.16048         2.84880         3.12493
   H       -7.79365         6.96598         2.93854
   H       -6.53693         4.86309        -0.85969
   H       -3.76717         4.17191        -1.03153
   H       -2.66123         4.66742        -5.02553
   H       -3.16994         6.78768        -3.80941
   H       -4.25037         5.88228        -2.72575
   H       -5.38831         6.88906        -4.62970
   H       -5.46084         5.25423        -4.75934
   H       -1.44686         3.53964        -2.97923
   H       -1.99061         4.98328        -2.10178
   H       -0.89721         6.26615        -3.86913
   H        0.17838         5.22658        -3.20104
   H       -3.42792         3.39887        -6.66082
   H       -5.22659         2.19034        -7.94105
   H       -5.98806        -0.07866        -7.23394
   H       -6.47901        -0.13560        -4.81434
   H       -6.63673         0.25655        -2.23883
   H       -6.49132         1.07756         0.09128
   H       -3.04112         1.56603        -8.70667
   H       -3.41214        -0.77365        -6.75771
   H       -1.08716        -1.89347        -5.54424
   H       -1.86248        -5.83738        -7.61779
   H       -3.99509        -2.57101        -8.93830
   H       -6.53446         1.35910       -11.19947
   H       -4.08435        -0.83999       -14.97729
   H       -6.74146         3.72759       -15.64325
   H       -7.20101         3.30160       -13.10868
*
