# ORCA input file
# SCF done       -201.618511078000          0.000968815112
! CAM-B3LYP def2-SVP def2/J RIJCOSX Grid4 TightSCF
%maxcore 5000
%tddft
    Mode sTDDFT
    Ethresh 5.0
    maxcore 5000
end

%pal
  nprocs 6
  end
* xyz 0 1
   C       22.97592         2.41568         6.39410
   C       24.15996         2.97052         5.99565
   F       25.31330         2.32864         6.25608
   C       24.22552         4.19594         5.31835
   C       23.06443         4.86373         5.04485
   C       21.81493         4.33752         5.43226
   C       21.76972         3.08840         6.11775
   C       20.52810         2.53307         6.50444
   C       19.37238         3.20640         6.21418
   C       19.42440         4.46462         5.54634
   C       20.60910         5.02081         5.15817
   C       18.05487         4.99391         5.38956
   O       17.70863         6.01185         4.83596
   C       17.18310         4.03068         6.11472
   C       17.97240         2.86162         6.44324
   C       17.49332         1.60033         6.68149
   C       18.31976         0.48365         6.92217
   N       18.95012        -0.45223         7.13224
   C       16.13123         1.23602         6.60818
   N       15.05948         0.84481         6.47825
   C       15.90007         4.34844         6.43537
   C       15.09767         3.70445         7.40731
   C       15.54889         3.09214         8.64142
   N       14.57221         2.59198         9.36999
   C       13.44537         2.80971         8.65316
   C       13.71262         3.54026         7.44379
   C       12.48511         3.77960         6.72347
   S       12.27539         4.64640         5.34486
   C       11.46478         3.14765         7.53327
   C       12.06474         2.56359         8.67316
   N       11.08638         2.05927         9.47129
   C        9.87825         2.28082         8.85619
   C       10.06799         2.98952         7.67851
   C        9.04667         3.67693         6.93031
   S        7.74908         2.81374         6.18422
   C        7.12387         4.22858         5.48651
   C        7.86824         5.34016         5.81384
   C        8.96832         5.04110         6.69220
   C        9.81298         6.11481         7.14138
   C        9.61905         7.34908         6.52704
   C        8.57270         7.63322         5.65323
   C        7.65783         6.65795         5.31128
   O        6.58492         6.81886         4.52163
   C        6.33851         8.08760         3.95367
   C       10.83088         6.06924         8.14714
   C       10.93175         5.25452         9.23635
   C       12.07125         5.23482        10.07605
   C       13.07671         6.30279        10.14228
   N       14.05288         6.07546        10.96792
   C       13.80181         4.85921        11.51514
   C       12.54946         4.28086        10.97970
   C       12.38948         2.98461        11.56083
   S       11.29833         1.70515        11.12271
   C       13.44145         2.80375        12.48023
   C       14.34047         3.97737        12.41248
   N       15.43941         3.79687        13.18142
   C       15.31096         2.61166        13.70898
   C       14.08209         1.91012        13.34997
   C       13.80610         0.61571        13.81532
   C       12.64336        -0.10786        13.82352
   C       12.72271        -1.59076        13.95119
   O       13.68797        -2.23629        14.28721
   C       11.39513        -2.08284        13.53603
   C       10.97670        -3.36673        13.34234
   C        9.65537        -3.60049        12.89810
   C        8.79191        -2.49136        12.66209
   C        7.48038        -2.73213        12.20994
   C        7.06393        -4.01935        12.01061
   C        7.89688        -5.12260        12.23886
   C        9.17410        -4.90677        12.67732
   F        5.81065        -4.24889        11.57844
   C        9.25088        -1.17068        12.88238
   C       10.53211        -0.97035        13.31707
   C       11.26717         0.25325        13.63154
   C       10.70051         1.48367        13.88668
   C       11.40310         2.56363        14.45243
   N       11.92179         3.46152        14.94547
   C        9.33359         1.77009        13.70086
   N        8.23845         2.06838        13.52648
   H       22.96232         1.46867         6.91065
   H       25.18895         4.58438         5.02851
   H       23.08969         5.80926         4.52439
   H       20.52229         1.59025         7.02819
   H       20.62656         5.97127         4.64618
   H       15.47019         5.20391         5.92379
   H       16.55674         3.08982         9.01489
   H        8.96554         1.97181         9.32635
   H        6.26625         4.19279         4.84593
   H       10.28290         8.15982         6.79005
   H        8.48465         8.63545         5.26647
   H        5.43197         7.97355         3.36242
   H        7.16082         8.39724         3.30287
   H        6.17659         8.84463         4.72609
   H       11.61131         6.80697         8.00792
   H       10.12599         4.57652         9.47552
   H       13.03694         7.22984         9.59947
   H       16.06516         2.21935        14.36891
   H       14.67094         0.06309        14.17380
   H       11.64559        -4.19512        13.52102
   H        6.80909        -1.90748        12.02746
   H        7.51395        -6.11541        12.06400
   H        9.83506        -5.74047        12.86027
   H        8.57849        -0.34949        12.69121
*
