# ORCA input file
# SCF done       -186.622065624798          0.000873008041
! CAM-B3LYP def2-SVP def2/J RIJCOSX Grid4 TightSCF
%maxcore 5000
%tddft
    Mode sTDDFT
    Ethresh 5.0
    maxcore 5000
end

%pal
  nprocs 6
  end
* xyz 0 1
   C      -15.03812        -6.64923        -0.98864
   C      -15.50411        -5.51990        -1.64358
   C      -14.63042        -4.53699        -2.08940
   C      -13.26401        -4.65094        -1.88600
   C      -12.78676        -5.77394        -1.23124
   C      -13.67274        -6.78129        -0.78431
   C      -12.90403        -7.84372        -0.15432
   C      -13.40360        -8.90794         0.54138
   C      -14.78193        -9.14448         0.74084
   N      -15.88407        -9.39124         0.94153
   C      -12.62183        -9.88416         1.19730
   N      -12.04229       -10.70198         1.75632
   C      -11.49387        -7.54194        -0.40875
   C      -11.43292        -6.15077        -0.85918
   C      -10.37793        -5.29695        -0.68626
   C       -9.16955        -5.65215        -0.05308
   N       -8.18462        -5.87089         0.49443
   C      -10.39177        -3.94493        -1.08777
   N      -10.33785        -2.84590        -1.41284
   C      -10.48312        -8.44750        -0.36647
   C       -9.18949        -8.31490        -0.94578
   C       -7.97554        -8.95821        -0.41779
   N       -6.90469        -8.72572        -1.11190
   C       -7.30039        -7.95185        -2.15957
   C       -8.75491        -7.69742        -2.09596
   C       -9.17441        -6.94085        -3.24606
   S      -10.72945        -6.56942        -3.65049
   C       -7.95267        -6.64903        -3.95540
   C       -6.81456        -7.29540        -3.25354
   N       -5.64150        -7.01299        -3.88241
   C       -5.95284        -6.23248        -4.87274
   C       -7.39036        -5.93112        -4.98251
   C       -7.97241        -5.09848        -6.00104
   C       -9.27431        -5.29241        -6.44313
   C       -9.84095        -4.49185        -7.42771
   C       -9.13422        -3.45059        -8.00178
   C       -7.77727        -3.25605        -7.61974
   C       -7.20833        -4.05817        -6.59845
   N       -5.96551        -3.77754        -6.17004
   C       -5.25940        -2.84995        -6.75258
   C       -5.77509        -2.17887        -7.91197
   N       -7.01114        -2.36890        -8.27395
   C       -4.91138        -1.31082        -8.75574
   C       -3.91638        -2.53201        -6.20394
   C       -9.69749        -2.55202        -8.97471
   C      -10.43349        -2.91212       -10.19144
   N      -10.74525        -1.89875       -10.94429
   C      -10.26460        -0.79752       -10.29700
   C       -9.59673        -1.18810        -9.04684
   C       -9.22773        -0.00996        -8.30012
   S       -8.59684        -0.00730        -6.77032
   C       -9.58846         1.09215        -9.13908
   C      -10.23982         0.56879       -10.36616
   N      -10.65358         1.58142       -11.17068
   C      -10.32053         2.67316       -10.55656
   C       -9.63187         2.47860        -9.26757
   C       -9.32456         3.62034        -8.50230
   C       -8.56743         3.85310        -7.38019
   C       -8.72724         5.07674        -6.57644
   C       -9.29491         6.25694        -6.96465
   C       -9.81539         6.55842        -8.24380
   N      -10.24472         6.89573        -9.25386
   C       -9.38994         7.39549        -6.13098
   N       -9.50440         8.35556        -5.51408
   C       -8.11547         4.81224        -5.28398
   C       -7.45145         3.56655        -5.34958
   C       -6.79601         3.05625        -4.24225
   C       -6.80308         3.79853        -3.07011
   C       -7.44585         5.02646        -3.00584
   C       -8.10836         5.54645        -4.10819
   C       -7.61833         3.02500        -6.68706
   C       -6.90783         1.96951        -7.22078
   C       -5.89606         1.26616        -6.52908
   N       -5.04805         0.65520        -6.05558
   C       -6.85513         1.70753        -8.60577
   N       -6.75721         1.47439        -9.72478
   H      -15.72967        -7.40626        -0.65689
   H      -16.56412        -5.40791        -1.81289
   H      -15.01847        -3.67168        -2.60470
   H      -12.59123        -3.89007        -2.24695
   H      -10.66818        -9.40599         0.10201
   H       -7.94254        -9.56044         0.47295
   H       -5.20161        -5.88035        -5.55495
   H       -9.86409        -6.08421        -6.00943
   H      -10.86706        -4.65945        -7.71950
   H       -4.41752        -0.55410        -8.15045
   H       -5.51092        -0.83193        -9.52517
   H       -4.13982        -1.91612        -9.23145
   H       -3.14587        -2.68466        -6.95778
   H       -3.71379        -3.15941        -5.34055
   H       -3.89190        -1.48430        -5.90557
   H      -10.70454        -3.91479       -10.47233
   H      -10.53774         3.63712       -10.98459
   H       -9.86660         4.48780        -8.86168
   H       -6.30573         2.09702        -4.27533
   H       -6.30425         3.41018        -2.19547
   H       -7.43920         5.58520        -2.08272
   H       -8.61313         6.49556        -4.03513
*
