# ORCA input file
# SCF done       -211.608012856383          0.000727713381
! CAM-B3LYP def2-SVP def2/J RIJCOSX Grid4 TightSCF
%maxcore 5000
%tddft
    Mode sTDDFT
    Ethresh 5.0
    maxcore 5000
end

%pal
  nprocs 6
  end
* xyz 0 1
   C        1.12526        11.14832        -7.97356
   C        1.72914         9.93799        -7.68929
   C        3.11712         9.77288        -7.54081
   N        4.24125         9.60006        -7.37996
   C        1.00217         8.73399        -7.68284
   N        0.41829         7.74534        -7.75481
   C        1.79807        12.34051        -8.47405
   C        0.83026        13.14554        -9.14569
   C        1.18031        14.30219        -9.77737
   C        2.53103        14.72220        -9.75204
   C        3.49741        13.93009        -9.06870
   C        3.10906        12.72715        -8.43313
   C        4.83810        14.36332        -9.04757
   C        5.21030        15.52171        -9.67432
   C        4.25869        16.30004       -10.34860
   C        2.94752        15.90840       -10.38648
   C       -0.50480        12.52292        -9.01565
   O       -1.55735        12.91188        -9.47355
   C       -0.28840        11.34928        -8.14203
   C       -1.32774        10.73220        -7.50688
   N       -1.23168        10.05836        -6.35405
   C       -2.32032         9.26632        -5.81129
   C       -2.58014         8.00733        -6.65167
   S       -2.75233         6.62053        -5.48689
   C       -1.47421         7.37486        -4.45156
   C       -1.88768         8.84682        -4.38441
   N       -0.84635         9.76622        -4.01634
   S        0.16744        10.02659        -5.37209
   C       -0.35924         9.93033        -2.74133
   C       -0.80961         9.31661        -1.63774
   C       -0.31999         9.55232        -0.29590
   C        0.43703        10.64230         0.05207
   C        0.94736        10.77205         1.36313
   C        1.75910        11.73011         1.94495
   C        2.25904        13.02101         1.38475
   C        3.11327        12.83682         0.11966
   N        4.01314        13.96904        -0.01786
   C        1.07456        13.97588         1.14975
   N        1.54453        15.32745         0.87497
   C        2.01511        11.29189         3.29724
   C        2.82346        11.79070         4.24713
   C        2.95614        11.13855         5.58522
   C        2.07960         9.94264         5.78085
   C        1.31702         9.42708         4.79960
   C        1.26872        10.04768         3.52789
   C        0.63895         9.73303         2.34330
   C       -0.18464         8.64493         1.96835
   C       -0.64488         8.56605         0.69685
   C        2.74193        12.21192         6.62325
   C        1.55797        12.46820         7.16011
   N        1.37380        13.51860         8.08476
   C        1.17807        14.89320         7.63728
   C        1.84621        15.26879         6.33529
   S        0.76418        14.68428         4.98330
   C       -0.72625        14.60067         6.03844
   C       -0.35002        15.07160         7.44831
   N       -0.97361        14.25039         8.45992
   S        0.22496        13.27600         9.28852
   C       -2.22343        14.40378         8.91858
   C       -3.13535        15.30763         8.46140
   C       -4.41030        15.39883         9.03943
   C       -5.35535        16.33809         8.70665
   C       -6.66281        16.49324         9.30251
   C       -7.24158        15.69670        10.26094
   C       -8.52683        15.90950        10.79786
   N       -9.56200        16.02422        11.28280
   C       -6.65506        14.55696        10.84462
   N       -6.24947        13.61504        11.36414
   C       -7.28862        17.66696         8.69861
   C       -6.39686        18.20832         7.72975
   C       -5.16663        17.39523         7.69427
   O       -4.20086        17.58097         6.97421
   C       -6.71017        19.31896         7.00220
   C       -7.95321        19.95690         7.21692
   C       -8.84938        19.42381         8.18639
   C       -8.49812        18.26792         8.92201
   C      -10.08394        20.07003         8.39792
   C      -10.41938        21.18998         7.68682
   C       -9.53641        21.71376         6.73133
   C       -8.32987        21.10995         6.50125
   H        0.43794        14.89202       -10.29435
   H        3.85764        12.14264        -7.92058
   H        5.56797        13.75834        -8.52968
   H        6.24089        15.84344        -9.65448
   H        4.56873        17.21115       -10.83832
   H        2.21020        16.50413       -10.90472
   H       -2.33186        10.87299        -7.88851
   H       -3.21500         9.89788        -5.77294
   H       -1.72306         7.79476        -7.29576
   H       -3.48413         8.07527        -7.25051
   H       -0.50553         7.26033        -4.94337
   H       -1.45582         6.88953        -3.48025
   H       -2.72143         8.96542        -3.68596
   H        0.44228        10.65366        -2.70323
   H       -1.57589         8.55896        -1.72511
   H        0.65553        11.40814        -0.67456
   H        2.91167        13.49075         2.12676
   H        2.45461        12.69932        -0.75283
   H        3.72092        11.93146         0.22496
   H        3.45368        14.81789        -0.05027
   H        4.53615        13.89897        -0.88467
   H        0.41766        13.92704         2.03477
   H        0.49622        13.64010         0.28512
   H        2.01217        15.69305         1.69940
   H        0.75494        15.93480         0.68007
   H        3.41255        12.68314         4.08603
   H        4.00215        10.80589         5.68246
   H        2.12138         9.48712         6.75890
   H        0.72708         8.53803         4.97171
   H       -0.42968         7.88592         2.69709
   H       -1.26534         7.73355         0.39576
   H        3.59550        12.82965         6.86364
   H        0.70379        11.83188         6.95810
   H        1.52709        15.53931         8.45270
   H        2.82562        14.81646         6.21255
   H        1.93298        16.35320         6.26299
   H       -1.06522        13.56393         6.04962
   H       -1.50258        15.22104         5.59522
   H       -0.62693        16.12113         7.58978
   H       -2.48292        13.72780         9.72335
   H       -2.89338        15.98821         7.66179
   H       -4.64027        14.68539         9.81953
   H       -6.01666        19.71032         6.27240
   H       -9.19912        17.89053         9.64924
   H      -10.76025        19.66219         9.13499
   H      -11.36723        21.67850         7.85711
   H       -9.81658        22.59827         6.17865
   H       -7.64573        21.50948         5.76656
*
