# ORCA input file
# SCF done       -182.329373362575          0.000716840017
! CAM-B3LYP def2-SVP def2/J RIJCOSX Grid4 TightSCF
%maxcore 5000
%tddft
    Mode sTDDFT
    Ethresh 5.0
    maxcore 5000
end

%pal
  nprocs 6
  end
* xyz 0 1
   C       -4.81549         4.65223        -3.66151
   C       -5.26941         3.82464        -2.67013
   C       -6.12568         2.72365        -2.88914
   N       -6.82379         1.81930        -2.99803
   C       -4.94252         3.93979        -1.30202
   N       -4.71653         3.96981        -0.17674
   C       -5.09351         4.51207        -5.08383
   C       -4.36179         5.50629        -5.79470
   C       -4.42039         5.61195        -7.15500
   C       -5.22889         4.71048        -7.88163
   C       -5.97125         3.71771        -7.17776
   C       -5.89085         3.63265        -5.76950
   C       -6.78176         2.82808        -7.91241
   C       -6.85489         2.91201        -9.27621
   C       -6.12202         3.88826        -9.96812
   C       -5.32594         4.76794        -9.28595
   C       -3.59944         6.33368        -4.84884
   O       -2.92103         7.30156        -5.11232
   C       -3.91205         5.78224        -3.49471
   C       -3.53604         6.35752        -2.32591
   C       -2.57707         7.40398        -2.18653
   C       -2.72532         8.53409        -1.25619
   N       -1.76080         9.40141        -1.31394
   C       -0.88135         8.91054        -2.23306
   C       -1.36240         7.63378        -2.78378
   C       -0.38640         7.09834        -3.70334
   S       -0.47583         5.63113        -4.45176
   C        0.64615         8.09650        -3.77133
   C        0.29460         9.20840        -2.86118
   N        1.20435        10.22213        -2.94823
   C        2.05605         9.84155        -3.84335
   C        1.80564         8.49970        -4.41094
   C        2.71605         7.96969        -5.35677
   S        3.79126         9.10604        -6.13187
   C        4.62731         7.84203        -6.96869
   C        4.07783         6.58783        -6.67485
   C        2.98921         6.65941        -5.76602
   O        2.39721         5.55547        -5.30473
   O        4.61234         5.49477        -7.24645
   C        4.00036         4.22839        -7.07666
   C        5.75532         8.14638        -7.76111
   C        6.70562         7.18520        -8.34966
   N        7.73433         7.73172        -8.91818
   C        7.57149         9.08096        -8.77381
   C        6.30680         9.37409        -8.07116
   C        6.13958        10.79227        -7.95044
   S        4.79515        11.64847        -7.52859
   C        7.37463        11.34041        -8.44863
   C        8.21508        10.26612        -9.00760
   N        9.35980        10.79013        -9.53615
   C        9.28356        12.07340        -9.34553
   C        8.07082        12.50694        -8.63604
   C        7.68748        13.84328        -8.30673
   C        6.95802        14.15420        -7.20924
   C        6.22104        15.38078        -6.93970
   C        6.38957        16.58884        -7.55849
   C        5.63218        17.74119        -7.25786
   N        5.05292        18.71072        -7.05478
   C        7.36589        16.84912        -8.54321
   N        8.14712        17.11592        -9.34076
   C        5.25689        15.07445        -5.89143
   C        5.53785        13.77862        -5.36674
   C        6.70018        13.21422        -6.06834
   O        7.38257        12.26988        -5.74095
   C        4.77509        13.21812        -4.38173
   C        3.65750        13.92541        -3.88755
   C        3.36942        15.22199        -4.40861
   C        4.19016        15.78788        -5.40990
   C        2.24690        15.91737        -3.91407
   C        1.43861        15.35636        -2.96283
   C        1.71842        14.07792        -2.45690
   C        2.80769        13.38079        -2.90415
   H       -3.85391         6.37420        -7.66920
   H       -6.46862         2.87354        -5.26658
   H       -7.34305         2.07753        -7.37559
   H       -7.47814         2.22617        -9.82996
   H       -6.19197         3.94007       -11.04430
   H       -4.76012         5.52206        -9.81312
   H       -4.01274         6.05112        -1.40195
   H       -3.56128         8.67644        -0.59387
   H        2.88426        10.46767        -4.12633
   H        1.48974         5.71369        -4.94046
   H        4.60406         3.54268        -7.66908
   H        2.97404         4.22970        -7.44845
   H        4.00493         3.91808        -6.03104
   H        6.59076         6.11764        -8.31573
   H       10.07189        12.72885        -9.67247
   H        7.95405        14.60706        -9.02697
   H        5.01434        12.23689        -3.99869
   H        3.94364        16.76824        -5.78688
   H        2.03564        16.90138        -4.30657
   H        0.57777        15.89530        -2.59633
   H        1.06818        13.64233        -1.71416
   H        3.02013        12.39886        -2.50982
*
