# ORCA input file
# SCF done       -208.756845252858          0.001141721814
! CAM-B3LYP def2-SVP def2/J RIJCOSX Grid4 TightSCF
%maxcore 5000
%tddft
    Mode sTDDFT
    Ethresh 5.0
    maxcore 5000
end

%pal
  nprocs 6
  end
* xyz 0 1
   C       -3.47914        -2.18120         0.59140
   C       -2.65413        -2.12230         1.68572
   C       -1.64001        -3.06390         1.95958
   N       -0.79466        -3.78984         2.23673
   C       -2.69909        -1.15721         2.71441
   N       -2.66552        -0.43406         3.60690
   C       -3.46911        -3.24742        -0.40176
   C       -4.55748        -3.04837        -1.28210
   C       -4.82842        -3.89045        -2.33270
   C       -3.97851        -4.98393        -2.52680
   C       -2.88848        -5.17342        -1.64471
   C       -2.61743        -4.32245        -0.58073
   S       -1.96050        -6.58064        -2.06928
   C       -3.03637        -6.89076        -3.40595
   C       -4.03877        -5.98938        -3.53057
  Br       -2.73306        -8.37492        -4.51243
   C       -5.30095        -1.83263        -0.89040
   O       -6.29577        -1.41969        -1.44769
   C       -4.55364        -1.25627         0.25314
   C       -4.66715        -0.02258         0.83089
   C       -5.62200         1.03396         0.71616
   C       -5.23025         2.28873         1.23792
   C       -6.08073         3.35875         1.16735
   C       -7.34813         3.21586         0.56314
   C       -7.76475         1.97744         0.08836
   C       -6.91052         0.89982         0.17032
   C       -7.98484         4.50748         0.51580
   C       -7.11202         5.45776         1.07892
   C       -5.87396         4.78255         1.63061
   C       -5.95167         4.89186         3.17285
   C       -4.89767         4.11019         3.94593
   C       -4.57775         5.39635         1.08372
   C       -4.54307         5.41542        -0.44029
   C       -7.43998         6.78897         1.09499
   C       -8.66071         7.21121         0.53955
   C       -9.54013         6.24226         0.02474
   C       -9.21376         4.90450         0.00021
   C       -9.03838         8.59614         0.45141
   C       -8.20406         9.64316         0.64840
   C       -8.53855        11.01963         0.49903
   C       -7.52482        11.99184         0.64643
   C       -7.75959        13.40774         0.46368
   N       -6.75959        14.26626         0.59645
   C       -5.54392        13.83386         0.90042
   C       -5.31732        12.44001         1.09017
   N       -6.28598        11.56673         0.96190
   C       -4.01440        11.98986         1.42099
   N       -2.94493        11.67267         1.68461
   C       -4.47555        14.73753         1.03361
   N       -3.55208        15.40980         1.15687
   C       -9.05101        13.91830         0.13444
   C      -10.07457        12.92748         0.01411
   C       -9.82906        11.51811         0.18464
   N      -10.93925        10.80465         0.01183
   S      -12.16497        11.79908        -0.32840
   N      -11.34266        13.18623        -0.27458
   C       -9.39225        15.24962        -0.08251
   C       -8.65228        16.42668        -0.07477
   C       -9.23628        17.68000        -0.35065
   C       -8.36438        18.73753        -0.32188
   C       -7.05505        18.34854        -0.01984
   S       -6.94938        16.61910         0.23562
   C       -5.90905        19.13934         0.08442
   C       -5.77189        20.52791        -0.08177
   C       -4.48816        20.97324         0.08443
   C       -3.55592        19.95816         0.38761
   S       -4.37787        18.41071         0.46022
   C       -2.20055        20.13983         0.58147
   C       -1.22948        19.17085         0.86583
   C       -1.38707        17.77910         1.06164
   C       -0.12503        17.21759         1.29595
   C        0.24896        15.90143         1.53101
   C        1.60507        15.64407         1.71372
   C        2.29830        14.45443         1.95099
   C        3.68500        14.74064         2.05147
   C        3.85767        16.11254         1.87988
   C        2.58981        16.71553         1.66544
   C        2.22290        18.02127         1.43981
   C        0.85556        18.29051         1.24927
   C        0.16795        19.46599         0.99362
   C        4.75410        13.79931         2.28432
   C        4.60313        12.48771         2.45025
   H       -5.66897        -3.70984        -2.98431
   H       -1.77110        -4.50870         0.05860
   H       -4.78984        -6.02894        -4.29826
   H       -3.85000         0.23620         1.49600
   H       -4.24207         2.39257         1.66147
   H       -8.74373         1.86083        -0.35130
   H       -7.23115        -0.05773        -0.20070
   H       -6.94173         4.54697         3.48359
   H       -5.87553         5.95004         3.43283
   H       -5.00293         3.04155         3.78037
   H       -5.02141         4.29831         5.01020
   H       -3.89250         4.41422         3.66725
   H       -3.72655         4.82253         1.45206
   H       -4.48278         6.41606         1.46194
   H       -4.62884         4.40679        -0.83954
   H       -3.60642         5.84495        -0.78793
   H       -5.36241         6.01084        -0.83703
   H       -6.76621         7.51148         1.52840
   H      -10.48611         6.57027        -0.38155
   H       -9.89528         4.17869        -0.41790
   H      -10.05824         8.79861         0.15594
   H       -7.16769         9.47629         0.90494
   H      -10.44313        15.38809        -0.31324
   H      -10.28647        17.77126        -0.56715
   H       -8.64664        19.75810        -0.51214
   H       -6.60704        21.16215        -0.31898
   H       -4.19004        22.00326        -0.00630
   H       -1.84720        21.16043         0.48814
   H       -2.29947        17.21663         1.04475
   H       -0.48886        15.11332         1.56417
   H        1.84847        13.48339         2.04034
   H        4.79695        16.63508         1.90263
   H        2.95295        18.81792         1.40431
   H        0.59689        20.44740         0.89596
   H        5.74590        14.23373         2.31902
   H        3.63737        12.01281         2.42453
   H        5.44690        11.84171         2.61998
*
