# ORCA input file
# SCF done       -210.572643635398          0.000779443147
! CAM-B3LYP def2-SVP def2/J RIJCOSX Grid4 TightSCF
%maxcore 5000
%tddft
    Mode sTDDFT
    Ethresh 5.0
    maxcore 5000
end

%pal
  nprocs 6
  end
* xyz 0 1
   C       -2.09645         4.14961        -1.37156
   C       -1.07681         3.49202        -0.73128
   C        0.29001         3.67019        -1.03123
   N        1.41617         3.76907        -1.23000
   C       -1.24231         2.55396         0.30822
   N       -1.30890         1.78519         1.15921
   C       -1.93301         5.12521        -2.44641
   C       -3.21493         5.58502        -2.84357
   C       -3.39927         6.51393        -3.83859
   C       -2.25990         7.01630        -4.47619
   C       -0.98338         6.55323        -4.07530
   C       -0.79942         5.61281        -3.06756
   S        0.28485         7.30393        -4.99299
   C       -0.89853         8.21765        -5.89088
   C       -2.17945         7.97383        -5.52324
  Br       -0.33114         9.40438        -7.22635
   C       -4.23205         4.91141        -2.02742
   O       -5.44440         5.06850        -2.09604
   C       -3.51728         4.02034        -1.12141
   C       -4.12721         3.19843        -0.20081
   C       -5.48271         3.03134         0.07293
   S       -6.83422         3.86067        -0.69726
   C       -7.98924         2.99786         0.28291
   C       -7.36402         2.11859         1.14877
   C       -5.95720         2.13305         1.05174
   C       -5.36356         1.25816         1.99030
   C       -6.29849         0.62433         2.76004
   C       -6.05868        -0.31555         3.85869
   O       -4.98126        -0.73031         4.19394
   O       -7.22002        -0.64959         4.45263
   C       -7.12326        -1.55778         5.54128
   S       -7.94675         1.03986         2.37606
   N       -9.33642         3.15517         0.24669
   C      -10.08883         4.05727        -0.42407
   S       -9.43570         5.09308        -1.64272
   C      -11.04222         5.68631        -1.96254
   N      -11.16989         6.67268        -2.95246
   O      -12.28070         7.10106        -3.18936
   O      -10.13900         7.02179        -3.49991
   C      -12.00985         5.11022        -1.18895
   C      -11.48517         4.18021        -0.26732
   C      -12.30006         3.46052         0.66521
   C      -11.86945         2.90638         1.82664
   C      -12.59304         2.05346         2.70901
   C      -13.95173         1.66786         2.60202
   C      -14.57735         0.84084         3.60774
   N      -15.84953         0.44813         3.43931
   C      -16.54684         0.90547         2.43075
   C      -15.94986         1.79093         1.47820
   N      -14.67953         2.10224         1.56505
   C      -16.71157         2.29312         0.39387
   N      -17.34703         2.68282        -0.47529
   C      -17.89719         0.48918         2.31572
   N      -18.99643         0.17359         2.25979
   C      -13.89204         0.38677         4.75841
   C      -12.51736         0.68044         4.80579
   C      -11.89279         1.51485         3.81166
   N      -10.59364         1.69839         4.06923
   S      -10.20913         0.90772         5.40780
   N      -11.64978         0.29526         5.74493
   C      -14.52268        -0.36926         5.79176
   C      -15.82929        -0.35324         6.15227
   C      -16.91501         0.55093         5.82004
   C      -16.81715         1.90265         5.61530
   C      -17.92476         2.74458         5.38794
   N      -18.78686         3.47092         5.17407
   C      -15.59319         2.59741         5.59193
   N      -14.61370         3.19506         5.53809
   C      -18.15313        -0.19521         5.98192
   C      -17.86701        -1.41607         6.64773
   C      -16.41481        -1.51208         6.89178
   O      -15.81083        -2.36459         7.49613
   C      -18.84476        -2.33346         6.94855
   C      -20.15644        -2.04074         6.55939
   C      -20.42603        -0.82637         5.87967
   C      -19.44206         0.10959         5.58924
   S      -22.10460        -0.68023         5.46977
   C      -22.42367        -2.22491         6.21198
   C      -21.32808        -2.82417         6.73854
  Br      -24.16894        -2.90530         6.22090
   H       -4.38867         6.84230        -4.11569
   H        0.19414         5.29392        -2.80065
   H       -3.03344         8.44868        -5.97062
   H       -3.48678         2.57535         0.40937
   H       -4.30852         1.09573         2.11945
   H       -8.14130        -1.84185         5.79484
   H       -6.63681        -1.07556         6.39144
   H       -6.53793        -2.43250         5.25203
   H       -9.86120         2.50612         0.82935
   H      -13.05083         5.36891        -1.26391
   H      -13.34508         3.37326         0.40381
   H      -10.87726         3.11795         2.20565
   H      -13.88645        -1.07900         6.30965
   H      -18.60616        -3.25201         7.46134
   H      -19.68831         1.01346         5.05697
   H      -21.34456        -3.77942         7.23064
*
