# ORCA input file
# SCF done       -180.526634075899          0.000656938976
! CAM-B3LYP def2-SVP def2/J RIJCOSX Grid4 TightSCF
%maxcore 5000
%tddft
    Mode sTDDFT
    Ethresh 5.0
    maxcore 5000
end

%pal
  nprocs 6
  end
* xyz 0 1
   C       -0.76271         0.85327         1.40470
   C        0.45405         1.47925         1.48015
   C        1.69567         0.82088         1.57827
   N        2.74557         0.35971         1.63853
   C        0.62885         2.87659         1.51054
   N        0.86458         3.99819         1.58415
   C       -1.00653        -0.57384         1.53205
   C       -2.40607        -0.79638         1.55210
   C       -2.94880        -2.05233         1.67002
   C       -2.07093        -3.13733         1.77376
   C       -0.67456        -2.90382         1.74889
   C       -0.12439        -1.63418         1.63082
   S        0.22389        -4.38519         1.87561
   C       -1.26586        -5.28593         1.96155
   C       -2.38060        -4.51874         1.89862
  Br       -1.21010        -7.15289         2.12136
   C       -3.11706         0.48951         1.38485
   O       -4.31081         0.63853         1.25447
   C       -2.04648         1.51561         1.26913
   C       -2.22829         2.80124         0.87245
   C       -3.47051         3.50716         0.80485
   N       -3.59221         4.36271        -0.20574
   N       -4.65548         5.04243        -0.41430
   C       -5.75966         4.98515         0.34460
   C       -5.73088         4.14933         1.49739
   C       -4.53230         3.39926         1.74776
   N       -4.58659         2.74039         2.89785
   S       -6.02609         2.99475         3.56877
   N       -6.63834         3.98319         2.44988
   C       -6.83838         5.78180        -0.07998
   C       -6.72888         6.49615        -1.25240
   C       -7.71689         7.31542        -1.86012
   C       -7.33859         7.83386        -3.06004
   C       -6.03271         7.44474        -3.44469
   S       -5.28330         6.42781        -2.21551
   C       -5.36395         7.72001        -4.62039
   C       -5.82398         8.46792        -5.73474
   C       -4.95351         8.46401        -6.77698
   C       -3.77077         7.71127        -6.53200
   S       -3.76314         7.05533        -4.91797
   C       -2.76660         7.43506        -7.42230
   C       -1.68024         6.61301        -7.04379
   N       -1.61649         6.23665        -5.76665
   N       -0.67152         5.51169        -5.27004
   C        0.31662         5.02696        -6.00683
   C        0.33621         5.28667        -7.40472
   C       -0.68021         6.14181        -7.94085
   N       -0.52687         6.35203        -9.24122
   S        0.78517         5.55732        -9.73516
   N        1.20869         4.90053        -8.32852
   C        1.33009         4.22136        -5.37552
   C        1.91823         4.44888        -4.18285
   C        1.89766         5.60472        -3.29997
   C        1.67311         6.90302        -3.66843
   C        1.73839         8.00043        -2.78347
   N        1.77477         8.93262        -2.11514
   C        1.45876         7.33796        -4.99231
   N        1.35259         7.77906        -6.04760
   C        2.40426         5.16619        -2.00691
   C        2.89257         3.83770        -2.12647
   C        2.68196         3.35922        -3.50254
   O        3.00986         2.30129        -3.98631
   C        3.47617         3.16887        -1.07605
   C        3.59552         3.84267         0.14260
   C        3.11234         5.17146         0.25038
   C        2.51018         5.84275        -0.80514
   S        3.36593         5.81410         1.83923
   C        4.08338         4.30899         2.33800
   C        4.14948         3.37144         1.36282
  Br        4.67532         4.10904         4.10178
   H       -4.01775        -2.19558         1.68086
   H        0.94483        -1.50197         1.60906
   H       -3.38056        -4.91026         1.93604
   H       -1.38667         3.36733         0.49374
   H       -7.74230         5.80349         0.50743
   H       -8.67321         7.47934        -1.39488
   H       -7.96383         8.46065        -3.67128
   H       -6.77723         8.96613        -5.74191
   H       -5.11712         8.95756        -7.71884
   H       -2.80038         7.80710        -8.43422
   H        1.62081         3.31894        -5.90277
   H        3.83629         2.15822        -1.19028
   H        2.13716         6.84429        -0.67067
   H        4.55072         2.38359         1.49975
*
