# ORCA input file
# SCF done       -244.570637674118          0.000708575940
! CAM-B3LYP def2-SVP def2/J RIJCOSX Grid4 TightSCF
%maxcore 5000
%tddft
    Mode sTDDFT
    Ethresh 5.0
    maxcore 5000
end

%pal
  nprocs 6
  end
* xyz 0 1
   C       -3.72594       -34.32111       -10.42349
   C       -3.56347       -35.66099       -10.20686
   F       -3.37738       -36.49160       -11.23893
   C       -3.58932       -36.18492        -8.89804
   F       -3.42745       -37.50096        -8.71584
   C       -3.77659       -35.36084        -7.82368
   C       -3.94573       -33.97567        -8.01459
   C       -3.92152       -33.44464        -9.33733
   C       -4.09201       -32.05797        -9.55426
   C       -4.27811       -31.22607        -8.48155
   C       -4.29118       -31.76553        -7.16387
   C       -4.13469       -33.10063        -6.92255
   C       -4.48230       -30.67400        -6.19872
   O       -4.56359       -30.78045        -4.98753
   C       -4.53885       -29.43373        -6.98534
   C       -4.48467       -29.78245        -8.39656
   C       -4.65475       -28.94053        -9.46165
   C       -4.94631       -27.56018        -9.38398
   N       -5.20817       -26.44312        -9.40907
   C       -4.60169       -29.35964       -10.80929
   N       -4.56581       -29.64002       -11.92141
   C       -4.55321       -28.16870        -6.46752
   C       -4.60248       -27.74576        -5.12408
   C       -4.54649       -26.38330        -4.78628
   C       -4.39615       -25.37324        -5.75085
   N       -4.26148       -24.55853        -6.54643
   C       -4.64288       -26.15832        -3.40133
   C       -4.78155       -27.36654        -2.70816
   S       -4.76703       -28.76667        -3.70714
   S       -4.92008       -27.19333        -0.99284
   C       -4.79451       -25.46965        -1.19885
   C       -4.64887       -25.04743        -2.51042
   C       -4.54871       -23.63204        -2.59539
   C       -4.36744       -22.84759        -3.74308
   N       -4.20789       -22.11883        -4.61571
   C       -4.63156       -23.03627        -1.34267
   S       -4.82346       -24.18040        -0.04318
   N       -4.57232       -21.68702        -1.17906
   C       -4.62954       -20.91116        -0.06644
   S       -4.74780       -21.55361         1.53200
   C       -4.73074       -19.93275         2.16122
   N       -4.80888       -19.79360         3.54838
   O       -4.79618       -18.66813         4.01063
   O       -4.88233       -20.82695         4.19426
   C       -4.64072       -18.96805         1.19320
   C       -4.58300       -19.50620        -0.10410
   C       -4.49155       -18.78326        -1.33889
   C       -4.38178       -17.45513        -1.53345
   C       -4.27877       -16.91834        -2.85434
   C       -4.13579       -15.61325        -3.23592
   C       -4.03287       -15.43652        -4.63875
   C       -4.11398       -16.67072        -5.33351
   S       -4.30028       -18.00498        -4.23425
   C       -4.10096       -16.78879        -6.71316
   C       -4.24451       -18.09583        -7.35990
   C       -5.18863       -18.29714        -8.36447
   C       -5.37909       -19.55524        -8.90209
   C       -4.63867       -20.64588        -8.46025
   C       -3.68104       -20.43675        -7.47315
   C       -3.48546       -19.18457        -6.93025
   C       -4.84425       -22.01258        -9.02914
   C       -3.97819       -15.58306        -7.43407
   C       -3.90071       -14.34128        -6.74183
   C       -3.91569       -14.23453        -5.35958
   C       -3.79798       -12.93615        -4.68323
   C       -4.63608       -11.87777        -5.02438
   C       -4.51322       -10.65693        -4.39243
   C       -3.54918       -10.45208        -3.41121
   C       -2.71044       -11.50801        -3.07842
   C       -2.83210       -12.73544        -3.70132
   C       -3.41500        -9.11582        -2.74925
   S       -3.72873       -13.01635        -7.85334
   C       -3.72548       -14.12211        -9.23149
   C       -3.86746       -15.42949        -8.82825
   C       -3.60538       -13.52042       -10.50272
   C       -3.47882       -14.05474       -11.75559
   C       -3.37152       -13.24342       -12.96035
   C       -3.64286       -11.90555       -13.08619
   C       -3.53382       -11.19042       -14.29790
   N       -3.46426       -10.54823       -15.24704
   C       -4.10874       -11.04617       -12.06780
   N       -4.50934       -10.27427       -11.31734
   C       -2.98906       -14.12201       -14.05927
   C       -2.96514       -15.45354       -13.58258
   C       -3.31064       -15.47370       -12.14737
   O       -3.41699       -16.47393       -11.46901
   C       -2.65113       -16.52500       -14.38272
   C       -2.33558       -16.26796       -15.72055
   C       -2.35282       -14.93208       -16.18778
   C       -2.67692       -13.85020       -15.37883
   S       -1.92254       -14.83777       -17.86885
   C       -1.72979       -16.57008       -17.92027
   C       -1.97419       -17.18946       -16.74129
  Br       -1.22267       -17.39665       -19.52554
   H       -3.70476       -33.93738       -11.43156
   H       -3.79354       -35.77716        -6.82863
   H       -4.06582       -31.68934       -10.56671
   H       -4.15260       -33.48202        -5.91295
   H       -4.50574       -27.34315        -7.16984
   H       -4.47121       -21.17911        -2.05579
   H       -4.62231       -17.91948         1.42557
   H       -4.51023       -19.38520        -2.23960
   H       -4.35469       -16.75247        -0.71390
   H       -4.11900       -14.79557        -2.53751
   H       -5.80217       -17.47124        -8.69453
   H       -6.12662       -19.69392        -9.67033
   H       -3.09820       -21.27189        -7.11656
   H       -2.72170       -19.04109        -6.17990
   H       -4.07308       -22.22666        -9.76967
   H       -5.81237       -22.09412        -9.51691
   H       -4.77070       -22.76653        -8.24920
   H       -5.40012       -12.02100        -5.77405
   H       -5.17515        -9.84736        -4.66365
   H       -1.94920       -11.36778        -2.32399
   H       -2.15730       -13.53994        -3.44536
   H       -4.39065        -8.73298        -2.45554
   H       -2.97238        -8.39979        -3.44188
   H       -2.78054        -9.17714        -1.86860
   H       -3.87119       -16.25448        -9.51637
   H       -3.59237       -12.43771       -10.44888
   H       -2.64688       -17.52849       -13.98693
   H       -2.67177       -12.85213       -15.78325
   H       -1.90261       -18.25170       -16.59475
*
