# ORCA input file
# SCF done       -184.481008490154          0.000559097724
! CAM-B3LYP def2-SVP def2/J RIJCOSX Grid4 TightSCF
%maxcore 5000
%tddft
    Mode sTDDFT
    Ethresh 5.0
    maxcore 5000
end

%pal
  nprocs 6
  end
* xyz 0 1
   C       24.67438       -17.84876        -5.41728
   C       23.88225       -16.77246        -5.30195
   C       23.85628       -15.60603        -6.13363
   C       22.94134       -14.67836        -5.76595
   C       22.17578       -15.03034        -4.62386
   S       22.66502       -16.60228        -4.02668
   C       21.18018       -14.28660        -4.02366
   C       20.69975       -13.01607        -4.40473
   C       19.70385       -12.53907        -3.60145
   C       19.34376       -13.40128        -2.54766
   S       20.31927       -14.85658        -2.60741
   C       18.37442       -13.17106        -1.58674
   C       18.04779       -14.03881        -0.56051
   C       17.08106       -13.78777         0.39889
   C       16.71139       -14.61608         1.47444
   C       15.73348       -14.09689         2.27785
   C       15.27996       -12.82694         1.87497
   S       16.12912       -12.31353         0.43152
   C       14.34894       -12.00614         2.48214
   C       13.65009       -12.21759         3.69335
   C       12.88697       -11.16380         4.08339
   C       12.93954       -10.04323         3.20364
   S       13.93918       -10.44608         1.80484
   C       12.44853        -8.79928         3.42848
   C       12.66617        -7.67362         2.54561
   C       13.04209        -6.44595         3.10497
   C       13.41052        -5.43010         2.25180
   C       13.36185        -5.58342         0.85994
   C       12.90659        -6.76162         0.31120
   C       12.57318        -7.80643         1.15833
   C       13.97091        -4.37027         0.22917
   C       14.26690        -3.48188         1.43927
   O       14.76051        -2.37864         1.43050
   N       13.91420        -4.17483         2.56379
   C       14.11027        -3.67584         3.90292
   C       12.79455        -3.26719         4.55880
   C       15.30031        -4.72045        -0.48924
   C       15.00038        -5.46349        -1.79292
   O       14.41910        -5.04485        -2.76250
   N       15.48939        -6.73261        -1.65308
   C       16.07476        -6.94157        -0.41265
   C       16.55009        -8.11078         0.13545
   C       16.99338        -8.07696         1.46436
   C       17.06277        -6.85554         2.14111
   C       16.60763        -5.68112         1.56528
   C       16.06706        -5.73554         0.29981
   C       17.27256        -9.32224         2.14647
   C       16.82027        -9.59120         3.39762
   C       16.89532       -10.82440         4.10834
   C       16.15628       -10.86025         5.24884
   C       15.46401        -9.65913         5.52403
   S       15.83492        -8.45040         4.31636
   C       14.57707        -9.37582         6.54527
   C       14.13881       -10.19084         7.60447
   C       13.22454        -9.58769         8.42548
   C       12.89274        -8.27065         8.05881
   S       13.78989        -7.81343         6.62259
   C       12.00541        -7.41303         8.68816
   C       11.71989        -6.13266         8.24969
   C       10.85184        -5.25052         8.86977
   C       10.53072        -3.94737         8.44281
   C        9.65061        -3.29000         9.25426
   C        9.23179        -4.04423        10.37034
   S        9.98928        -5.62444        10.34874
   C        8.36703        -3.66298        11.37619
   C        7.69953        -2.41795        11.51153
   C        6.91733        -2.31961        12.61225
   C        6.90718        -3.49161        13.43667
   S        7.95689        -4.71950        12.71126
   C        6.23767        -3.68716        14.58249
   H       25.40188       -17.91151        -6.20708
   H       24.61034       -18.67447        -4.73289
   H       24.52465       -15.51317        -6.97109
   H       22.78723       -13.74491        -6.27777
   H       21.09559       -12.48768        -5.25317
   H       19.21836       -11.58856        -3.73827
   H       17.83615       -12.23331        -1.65285
   H       18.58063       -14.97858        -0.49004
   H       17.17900       -15.57258         1.63005
   H       15.33441       -14.59434         3.14360
   H       13.75225       -13.13116         4.25183
   H       12.30659       -11.12951         4.98874
   H       11.97090        -8.60728         4.37957
   H       13.11040        -6.34692         4.17653
   H       12.82347        -6.87810        -0.75853
   H       12.21707        -8.73472         0.73971
   H       13.32030        -3.85529        -0.48275
   H       14.76904        -2.80727         3.81837
   H       14.60847        -4.45028         4.49551
   H       12.32309        -2.47048         3.98852
   H       12.98557        -2.90884         5.56710
   H       12.10997        -4.11112         4.60660
   H       15.83967        -3.78990        -0.68389
   H       15.38082        -7.44505        -2.35763
   H       16.51036        -9.04671        -0.40034
   H       17.49099        -6.82617         3.13081
   H       16.65820        -4.74947         2.10745
   H       17.74031       -10.12010         1.58709
   H       17.47263       -11.64887         3.72801
   H       16.07101       -11.72083         5.88857
   H       14.50283       -11.19410         7.73634
   H       12.77924       -10.05790         9.28483
   H       11.50935        -7.77831         9.57822
   H       12.21185        -5.77955         7.35144
   H       10.95663        -3.52989         7.54706
   H        9.29883        -2.28961         9.07770
   H        7.82328        -1.63411        10.78534
   H        6.33829        -1.45401        12.88079
   H        5.61324        -2.91271        14.99145
   H        6.30538        -4.61107        15.12647
*
