# ORCA input file
# SCF done       -143.578500937609          0.000952809876
! CAM-B3LYP def2-SVP def2/J RIJCOSX Grid4 TightSCF
%maxcore 5000
%tddft
    Mode sTDDFT
    Ethresh 5.0
    maxcore 5000
end

%pal
  nprocs 6
  end
* xyz 0 1
   C       -4.31476         0.84405         1.96600
   C       -3.12763         0.13600         1.81123
   C       -1.93454         0.75694         1.29664
   N       -0.82173         0.01035         1.16961
   C       -0.85331        -1.25444         1.51900
   C       -2.02111        -1.85003         2.02335
   N       -3.12490        -1.17371         2.16353
   C       -1.94408         2.13819         0.93194
   C       -3.18053         2.82744         1.10616
   C       -4.35427         2.18783         1.61641
   N       -5.50235         2.89345         1.75910
   C       -5.49412         4.15243         1.41978
   C       -4.34216         4.78625         0.91787
   N       -3.22419         4.12164         0.77297
   C       -0.85142         2.87593         0.42128
   S       -1.03204         4.58313         0.03292
   C        0.63488         4.76800        -0.49717
   C        1.30540         3.54512        -0.38013
   C        0.46613         2.51268         0.12996
   N        1.18797         1.37641         0.20740
   C        2.46370         1.63681        -0.23410
   C        3.45430         0.64959        -0.27624
   N        4.27938        -0.14881        -0.31292
   C        2.57232         2.96507        -0.60456
   C        1.10082         6.00835        -0.95140
   C        2.37237         6.31776        -1.39770
   C        2.38922         7.67540        -1.75833
   N        3.22700         8.61641        -2.25120
   C        2.53866         9.80175        -2.36963
   C        1.22020         9.59248        -1.93056
   C        1.12928         8.26585        -1.55033
   C        0.20632         7.23185        -1.01180
   C        3.18053        10.96289        -2.88221
   C        2.59543        12.16698        -3.04570
   C        3.22204        13.34948        -3.58795
   C        2.47983        14.52584        -3.71293
   C        3.05415        15.67503        -4.25677
   C        4.39235        15.56879        -4.66694
   N        5.11252        14.47170        -4.54904
   C        4.55377        13.39803        -4.02746
   C        2.35729        16.92603        -4.42620
   C        1.16984        17.25317        -3.87436
   C        0.50302        18.48957        -4.06433
   S        1.10714        19.70362        -5.14331
   C       -0.20625        20.78346        -4.82161
   C       -1.08871        20.22150        -3.89676
   C       -0.68959        18.91842        -3.46649
   C       -1.48002        18.23485        -2.52659
   C       -2.62489        18.80225        -2.02218
   C       -3.42384        18.08400        -1.03076
   C       -3.57741        16.76683        -0.99462
   C       -3.02535        20.10543        -2.45441
   C       -4.28405        20.71712        -1.91763
   C       -2.27104        20.78305        -3.36958
   C       -0.30354        22.05830        -5.46106
   C        0.57034        22.54348        -6.34451
   H       -5.18919         0.35005         2.35323
   H        0.06570        -1.81380         1.40041
   H       -2.04276        -2.89211         2.31257
   H       -6.42245         4.69451         1.54175
   H       -4.33139         5.82943         0.63661
   H        0.76418         0.51657         0.55582
   H        3.45944         3.42954        -0.98461
   H        3.20077         5.63863        -1.45851
   H        4.19410         8.49280        -2.50177
   H        0.44884        10.33582        -1.90628
   H       -0.65435         7.05430        -1.65830
   H       -0.17794         7.48205        -0.02177
   H        4.21834        10.82983        -3.15854
   H        1.55824        12.28297        -2.76065
   H        1.44545        14.52889        -3.39926
   H        4.90065        16.41843        -5.10423
   H        5.20088        12.53447        -3.96518
   H        2.86279        17.66221        -5.03925
   H        0.66551        16.55301        -3.22293
   H       -1.16927        17.26281        -2.17603
   H       -3.91834        18.69412        -0.28675
   H       -3.13541        16.11779        -1.73259
   H       -4.16712        16.28726        -0.23199
   H       -5.12562        20.03671        -2.04030
   H       -4.50813        21.64556        -2.43719
   H       -4.18090        20.93894        -0.85499
   H       -2.57958        21.76491        -3.69703
   H       -1.16767        22.64719        -5.18323
   H        1.43999        21.98174        -6.64265
   H        0.44013        23.51215        -6.79251
*
