# ORCA input file
# SCF done       -130.164754346381          0.000319897334
! CAM-B3LYP def2-SVP def2/J RIJCOSX Grid4 TightSCF
%maxcore 5000
%tddft
    Mode sTDDFT
    Ethresh 5.0
    maxcore 5000
end

%pal
  nprocs 6
  end
* xyz 0 1
   C        6.04674         5.72413         5.90419
   N        6.51699         5.07402         6.92683
   C        7.38663         4.15823         6.40966
   C        7.43843         4.26051         4.94329
   C        8.38471         3.28178         4.38489
   O        8.67225         3.08651         3.22476
   C        8.89359         2.60647         5.59489
   C        8.25120         3.17498         6.80760
   N        8.72173         2.56366         7.92407
   C        9.58842         1.68374         7.49541
   C        9.74780         1.65889         6.04961
   C        6.57696         5.27743         4.61308
   C        6.25554         5.81290         3.33441
   S        5.19720         7.16953         3.14096
   C        5.41190         7.15523         1.41710
   C        4.64069         8.12080         0.67326
   O        4.65154         8.30591        -0.52146
   C        6.27178         6.12396         1.02252
   C        6.72882         5.37186         2.11980
   C        6.67888         5.80395        -0.32265
   S        7.14072         4.17794        -0.70589
   C        7.49406         4.61365        -2.34619
   C        7.85466         3.55897        -3.26915
   O        8.09262         3.68976        -4.44433
   C        7.27363         5.96736        -2.56714
   C        6.80706         6.62473        -1.41519
   C        7.49195         6.69035        -3.81711
   C        6.56403         7.64132        -4.23628
   C        6.81484         8.37381        -5.38982
   C        7.98751         8.09322        -6.09453
   N        8.87534         7.21207        -5.68611
   C        8.65076         6.53326        -4.58074
   C        5.88398         9.39531        -5.86418
   N        6.10718        10.73188        -5.68542
   C        7.20923        11.32995        -4.97091
   C        8.35973        11.70643        -5.89996
   C        5.07686        11.51452        -6.25582
   O        5.06322        12.72818        -6.20479
   C        4.17216        10.54489        -6.82396
   C        4.70494         9.24415        -6.55451
   C        3.80146         8.26419        -7.11113
   O        3.80990         7.05415        -7.13108
   N        2.77014         9.04493        -7.68571
   C        1.68707         8.41970        -8.40406
   C        1.89838         8.48155        -9.91515
   C        2.98530        10.39057        -7.52211
   C        2.08234        11.39957        -8.00244
   C        2.30922        12.70552        -7.85066
   H        5.32874         6.51602         6.03218
   H       10.11427         1.05405         8.19204
   H       10.40969         1.01284         5.50766
   H        3.98385         8.72144         1.33290
   H        7.40436         4.53737         2.03207
   H        7.88227         2.56352        -2.78277
   H        6.58793         7.67535        -1.38616
   H        5.65687         7.80684        -3.67353
   H        8.20995         8.59498        -7.02654
   H        9.42872         5.84597        -4.28331
   H        7.54843        10.63193        -4.20092
   H        6.82015        12.23445        -4.49408
   H        8.78875        10.82244        -6.36491
   H        9.13611        12.21212        -5.33266
   H        8.00201        12.37842        -6.67596
   H        0.73896         8.88648        -8.12266
   H        1.67548         7.37530        -8.07917
   H        1.96803         9.51162       -10.25836
   H        1.06879         7.99763       -10.42319
   H        2.81757         7.96549       -10.18122
   H        1.18626        11.05574        -8.50004
   H        3.19411        13.07172        -7.35776
   H        1.61091        13.43786        -8.21755
*
