# ORCA input file
# SCF done       -235.253800795687          0.000664781151
! CAM-B3LYP def2-SVP def2/J RIJCOSX Grid4 TightSCF
%maxcore 5000
%tddft
    Mode sTDDFT
    Ethresh 5.0
    maxcore 5000
end

%pal
  nprocs 6
  end
* xyz 0 1
   C       -4.79432        -0.17820         5.16936
   S       -4.11554        -1.74308         5.25143
   C       -5.13931        -2.34614         3.97306
   C       -5.98081        -1.32084         3.51110
   C       -5.77510        -0.08504         4.20722
   C       -6.54914         1.04489         3.85266
   C       -7.47730         0.93590         2.86411
   S       -8.45170         2.35836         2.41391
   C       -7.55000         2.86975         0.90343
   C       -6.16213         3.38971         1.21760
   C       -7.70442        -0.29777         2.18701
   S       -8.97365        -0.25995         0.96931
   C       -9.19889        -2.00109         0.47421
   C       -9.91683        -2.81356         1.53531
   C       -6.95180        -1.40091         2.49962
   C       -5.08090        -3.67735         3.53391
   C       -4.25055        -4.63368         4.04641
   C       -4.20173        -5.96421         3.61556
   S       -5.21481        -6.55869         2.32893
   C       -4.56949        -8.17443         2.43242
   C       -3.59441        -8.24322         3.44953
   C       -3.38430        -7.00116         4.11095
   C       -2.44619        -6.90460         5.15076
   C       -1.72123        -8.00959         5.52133
   S       -0.55588        -8.05164         6.83951
   C       -0.40740        -6.31774         7.38656
   C        0.40995        -5.47609         6.42411
   C       -1.92041        -9.24153         4.84522
   S       -0.99628       -10.67255         5.35462
   C        0.66350       -10.24659         4.67865
   C        1.75043       -10.62319         5.66372
   C       -2.84334        -9.36232         3.84310
   C       -4.99658        -9.20673         1.59432
   C       -5.89447        -9.03834         0.57111
   C       -6.37496       -10.00259        -0.32152
   S       -7.18463        -9.43304        -1.75338
   C       -7.40746       -11.03385        -2.40948
   C       -6.85188       -11.99194        -1.52769
   C       -6.31211       -11.41428        -0.33874
   C       -5.83653       -12.26833         0.67025
   C       -5.81423       -13.62098         0.47286
   S       -5.19197       -14.68348         1.75715
   C       -6.78814       -15.35066         2.38057
   C       -6.52200       -16.52688         3.29659
   C       -6.22401       -14.18738        -0.75779
   S       -6.01773       -15.92543        -0.90714
   C       -6.68170       -16.30372        -2.57045
   C       -6.58262       -17.79925        -2.80368
   C       -6.74675       -13.37597        -1.73676
   C       -8.06022       -11.13203        -3.64298
   C       -8.57073       -12.26461        -4.22779
   C       -9.14482       -12.37822        -5.49858
   S       -9.99788       -13.86221        -5.84331
   C      -10.46337       -13.35318        -7.44073
   C       -9.94201       -12.06837        -7.70491
   C       -9.18399       -11.52683        -6.62511
   C       -8.54518       -10.28971        -6.81366
   C       -8.71299        -9.60341        -7.98451
   S       -7.87705        -8.04929        -8.21458
   C       -9.29842        -6.90853        -7.95495
   C       -9.04619        -5.60175        -8.67738
   C       -9.49579       -10.12318        -9.04499
   S       -9.55874        -9.12659       -10.49391
   C      -10.74004        -9.97966       -11.59162
   C      -12.17929        -9.79952       -11.14599
   C      -10.09144       -11.35169        -8.90222
   C      -11.23223       -14.16229        -8.28131
   C      -11.66609       -15.42141        -7.96581
   C      -12.42813       -16.23849        -8.80963
   S      -12.95623       -15.72242       -10.38256
   C      -13.80780       -17.20138       -10.70312
   C      -13.65389       -18.09217        -9.63665
   C      -12.88333       -17.54702        -8.56108
   C      -12.66024       -18.31262        -7.40640
   C      -13.14881       -19.58917        -7.31921
   S      -12.86945       -20.49295        -5.80921
   C      -14.58763       -20.59174        -5.18835
   C      -15.12029       -19.22617        -4.80537
   C      -13.82682       -20.16636        -8.42024
   S      -14.36552       -21.86741        -8.39675
   C      -12.74099       -22.70584        -8.45946
   C      -12.03223       -22.45732        -9.77512
   C      -14.08534       -19.43164        -9.54415
   C      -14.52096       -17.29529       -11.94095
   C      -15.53034       -18.11867       -12.23154
   H       -4.44236         0.58999         5.82816
   H       -6.40426         1.98277         4.36532
   H       -8.17677         3.64744         0.46990
   H       -7.52099         2.01456         0.22962
   H       -6.21926         4.23131         1.90415
   H       -5.67409         3.71763         0.30177
   H       -5.55423         2.61006         1.67378
   H       -8.22752        -2.41882         0.21141
   H       -9.80110        -1.93103        -0.43199
   H       -9.35134        -2.83472         2.46466
   H      -10.05419        -3.83615         1.18853
   H      -10.89315        -2.38053         1.74065
   H       -7.08837        -2.33847         1.98714
   H       -5.75329        -3.95681         2.73363
   H       -3.58065        -4.35334         4.84855
   H       -2.32889        -5.96013         5.65461
   H        0.09428        -6.39585         8.35130
   H       -1.40748        -5.91743         7.54954
   H       -0.05105        -5.44377         5.43899
   H        1.40937        -5.89244         6.31958
   H        0.49461        -4.45846         6.80088
   H        0.66176        -9.17712         4.47762
   H        0.76841       -10.79319         3.74122
   H        1.61999       -10.07365         6.59275
   H        2.72732       -10.38716         5.24588
   H        1.71077       -11.68750         5.88234
   H       -2.97915       -10.31968         3.36613
   H       -4.53775       -10.16793         1.76097
   H       -6.23774        -8.02683         0.38287
   H       -5.51024       -11.88154         1.62008
   H       -7.37657       -15.64973         1.51442
   H       -7.29127       -14.53863         2.90680
   H       -6.00312       -17.31391         2.75477
   H       -7.46260       -16.92101         3.67611
   H       -5.90429       -16.22112         4.13778
   H       -6.08961       -15.75517        -3.30368
   H       -7.72095       -15.97448        -2.60208
   H       -5.54655       -18.12535        -2.74831
   H       -6.97555       -18.04615        -3.78765
   H       -7.15457       -18.34077        -2.05357
   H       -7.04375       -13.78766        -2.68339
   H       -8.21940       -10.18571        -4.13957
   H       -8.61090       -13.17226        -3.64310
   H       -7.89494        -9.87412        -6.06360
   H       -9.39929        -6.75989        -6.87932
   H      -10.18558        -7.40753        -8.34101
   H       -8.13959        -5.13067        -8.30488
   H       -9.88342        -4.92395        -8.52246
   H       -8.92966        -5.78182        -9.74331
   H      -10.45139       -11.02770       -11.66429
   H      -10.57486        -9.50816       -12.56062
   H      -12.33729       -10.20821       -10.14997
   H      -12.84836       -10.30639       -11.83891
   H      -12.43534        -8.74255       -11.12605
   H      -10.65633       -11.79787        -9.70326
   H      -11.49294       -13.75972        -9.25126
   H      -11.40244       -15.82991        -6.99948
   H      -12.10925       -17.90159        -6.57515
   H      -14.52419       -21.25234        -4.32448
   H      -15.19367       -21.06254        -5.96128
   H      -14.48495       -18.76575        -4.05132
   H      -16.12681       -19.32264        -4.40300
   H      -15.15652       -18.57136        -5.67490
   H      -12.97914       -23.76064        -8.32757
   H      -12.15414       -22.35769        -7.61042
   H      -12.64475       -22.79333       -10.60933
   H      -11.08906       -23.00000        -9.79307
   H      -11.82308       -21.39624        -9.90370
   H      -14.58543       -19.90302       -10.37334
   H      -14.20849       -16.57174       -12.68526
   H      -15.94334       -18.81094       -11.52090
   H      -15.99710       -18.09227       -13.20053
*
