# ORCA input file
# SCF done       -149.207297137654          0.000594042302
! CAM-B3LYP def2-SVP def2/J RIJCOSX Grid4 TightSCF
%maxcore 5000
%tddft
    Mode sTDDFT
    Ethresh 5.0
    maxcore 5000
end

%pal
  nprocs 6
  end
* xyz 0 1
   C       -2.59500         0.21661         0.89507
   C       -2.16009         0.03988        -0.43145
   N       -2.06767         0.88265        -1.44384
   O       -1.59372         0.18200        -2.46735
   N       -1.36869        -1.09466        -2.17166
   C       -1.70522        -1.24610        -0.90616
   C       -1.68581        -2.37473        -0.03915
   C       -2.12212        -2.14440         1.24876
   C       -2.56376        -0.88419         1.70228
   C       -1.23817        -3.65694        -0.50261
   S       -1.22656        -5.04360         0.55328
   C       -0.60305        -6.07244        -0.70583
   C       -0.41999        -5.34414        -1.88508
   C       -0.78136        -3.99083        -1.75278
   C        0.08951        -5.89072        -3.14326
   O        0.23613        -5.23727        -4.14613
   C       -0.35030        -7.44322        -0.48771
   C       -0.55230        -8.08996         0.69197
   C       -0.28732        -9.47086         0.84508
   N       -0.48927       -10.17121         2.01322
   C       -1.03945        -9.65507         3.24279
   C       -2.55789        -9.51286         3.17189
   C       -0.14470       -11.52596         1.88297
   O       -0.24376       -12.33279         2.78719
   C        0.31690       -11.65018         0.51833
   C        0.21562       -10.37286        -0.09139
   C        0.67518       -10.49417        -1.45371
   O        0.76821        -9.68495        -2.35934
   N        1.02412       -11.84690        -1.58550
   C        1.58095       -12.35375        -2.81581
   C        3.09934       -12.49493        -2.73822
   C        0.82034       -12.54901        -0.41791
   C        1.08311       -13.93905        -0.28019
   C        0.88140       -14.59732         0.88439
   C        1.11184       -15.99769         1.12548
   C        0.80473       -16.51207         2.39045
   C        1.00257       -17.84723         2.68291
   N        0.50609       -18.31487         3.95829
   O        0.69111       -17.60519         4.92021
   O       -0.10905       -19.35903         3.96578
   C        1.55829       -18.73327         1.74615
   C        1.82505       -18.21711         0.47295
   C        1.60908       -16.89323         0.16692
   C        1.91574       -20.10352         2.05500
   C        2.44242       -20.49929         3.22429
   C        2.82766       -21.84787         3.56209
   C        3.58616       -22.06442         4.74471
   N        4.06023       -21.22121         5.64065
   O        4.70049       -21.95948         6.54179
   N        4.67008       -23.26162         6.27409
   C        3.98224       -23.38983         5.15369
   C        3.62374       -24.51500         4.38803
   C        2.89346       -24.28039         3.25837
   C        2.50348       -22.98442         2.85418
   H       -2.93106         1.18238         1.23166
   H       -2.12688        -2.96912         1.94704
   H       -2.88702        -0.80231         2.72918
   H       -0.70670        -3.28344        -2.55912
   H        0.34202        -6.96440        -3.11897
   H        0.02679        -8.00564        -1.33074
   H       -0.92658        -7.53953         1.54443
   H       -0.56885        -8.69680         3.48011
   H       -0.77569       -10.37948         4.01855
   H       -2.85009        -8.82684         2.37984
   H       -2.93644        -9.13735         4.11844
   H       -3.01158       -10.48124         2.97606
   H        1.32142       -11.62300        -3.58704
   H        1.11079       -13.30915        -3.06609
   H        3.55095       -11.52610        -2.54033
   H        3.48301       -12.86970        -3.68312
   H        3.38975       -13.17916        -1.94379
   H        1.44907       -14.45745        -1.15407
   H        0.51155       -14.03714         1.73294
   H        0.38498       -15.86521         3.14730
   H        2.23573       -18.87879        -0.27533
   H        1.83777       -16.54482        -0.82794
   H        1.80885       -20.80477         1.23899
   H        2.64892       -19.77800         4.00448
   H        3.91926       -25.50235         4.70001
   H        2.59056       -25.11303         2.64095
   H        1.91057       -22.89709         1.95706
*
