# ORCA input file
# SCF done       -163.287804409045          0.000938036733
! CAM-B3LYP def2-SVP def2/J RIJCOSX Grid4 TightSCF
%maxcore 5000
%tddft
    Mode sTDDFT
    Ethresh 5.0
    maxcore 5000
end

%pal
  nprocs 6
  end
* xyz 0 1
   C        9.94037        -2.09078         2.67991
   C       10.87843        -1.84028         3.63476
   S       10.45158        -2.57217         5.13623
   C        8.97908        -3.23793         4.46960
  Cl        7.92244        -4.16625         5.41184
   C        8.85038        -2.88954         3.15749
   C        7.88849        -3.12475         2.07723
   O        6.89960        -3.81753         2.09202
   C        8.44904        -2.37481         0.90265
   C        9.72662        -1.77491         1.28377
   C       10.57413        -1.03263         0.50929
   C       11.77175        -0.49828         1.03331
   N       12.74660        -0.05509         1.44337
   C       10.38040        -0.72070        -0.85158
   N       10.27854        -0.44750        -1.96157
   C        7.87164        -2.35189        -0.31655
   C        6.53959        -2.85077        -0.60953
   C        6.30642        -3.69933        -1.68564
   C        5.00592        -4.12780        -1.96371
   C        3.98669        -3.63466        -1.13586
   N        4.19878        -2.78856        -0.15292
   C        5.42558        -2.40577         0.11793
   C        4.71537        -5.03614        -3.04088
   S        3.12135        -5.11248        -3.75061
   C        3.55146        -6.34779        -4.90486
   C        4.88838        -6.69816        -4.72154
   C        5.52518        -5.95379        -3.67846
   N        6.80991        -6.39250        -3.57346
   C        7.00053        -7.39456        -4.50658
   C        8.23126        -8.05481        -4.62793
   N        9.24037        -8.59320        -4.71808
   C        5.84958        -7.60029        -5.23455
   C        2.63741        -6.85805        -5.85138
   S        3.17053        -8.05006        -7.02213
   C        1.60653        -8.13387        -7.75703
   C        0.74186        -7.30651        -7.14230
   C        1.29110        -6.56833        -6.05592
   C        0.37141        -5.69925        -5.39572
   C       -0.88560        -5.69796        -5.90103
   S       -0.98136        -6.84063        -7.30282
   O       -1.20875        -6.12835        -8.52823
   O       -1.84570        -7.94671        -7.00438
   C       -2.06516        -5.00896        -5.54439
   C       -2.20423        -4.14344        -4.51127
   C       -3.42376        -3.49212        -4.18239
   S       -4.87317        -3.73029        -5.10966
   C       -5.79227        -2.68304        -4.07774
   C       -5.00683        -2.19760        -3.05050
   C       -3.66736        -2.63291        -3.12310
   C       -2.64797        -2.28154        -2.08301
   F       -2.45030        -3.38785        -1.26780
   C       -3.11849        -1.11561        -1.20548
   F       -2.26637        -0.98931        -0.14153
   C       -4.54701        -1.39380        -0.73633
   F       -4.94197        -0.47778         0.20177
   C       -5.48084        -1.30333        -1.94848
   F       -5.48084         0.01297        -2.39146
   C       -7.18551        -2.47205        -4.38418
   C       -7.90931        -1.40526        -4.05442
   H       11.78891        -1.27897         3.56249
   H        8.40122        -1.91546        -1.15466
   H        7.13457        -4.01745        -2.30221
   H        2.96096        -3.94614        -1.28340
   H        5.53801        -1.69130         0.92045
   H        7.48651        -6.12593        -2.87898
   H        5.72365        -8.31199        -6.02417
   H        1.44373        -8.78921        -8.58820
   H        0.67415        -5.09731        -4.55389
   H       -2.91812        -5.22727        -6.17512
   H       -1.36082        -3.93586        -3.86858
   H       -1.66533        -2.05496        -2.51476
   H       -3.07950        -0.16817        -1.75788
   H       -4.61025        -2.38184        -0.26344
   H       -6.51574        -1.52020        -1.65715
   H       -7.63419        -3.26344        -4.97117
   H       -7.50073        -0.55569        -3.53823
   H       -8.94715        -1.34079        -4.33161
*
