# ORCA input file
# SCF done       -162.015003150081          0.000674501539
! CAM-B3LYP def2-SVP def2/J RIJCOSX Grid4 TightSCF
%maxcore 5000
%tddft
    Mode sTDDFT
    Ethresh 5.0
    maxcore 5000
end

%pal
  nprocs 6
  end
* xyz 0 1
   C        2.02934         0.40937        -0.43852
   N        2.39033         1.61228        -0.96242
   C        3.48916         1.84082        -1.86667
   C        3.18978         1.30175        -3.26292
   C        1.50257         2.63385        -0.56271
   O        1.62488         3.79810        -0.90265
   C        0.54495         1.95795         0.27471
   C        0.90936         0.57534         0.32644
   C       -0.06110        -0.11072         1.16007
   O       -0.17072        -1.26844         1.49525
   N       -0.95741         0.90409         1.54519
   C       -2.05213         0.63646         2.44764
   C       -1.72482         1.06660         3.87498
   C       -0.60708         2.13274         1.03328
   C       -1.36311         3.31015         1.25734
   C       -0.97207         4.53083         0.80171
   C       -1.75972         5.68951         1.00798
   N       -1.39116         6.95011         0.60303
   C       -0.18859         7.30528        -0.11260
   C       -0.27911         6.95625        -1.59563
   C       -2.36647         7.91636         0.92130
   O       -2.25151         9.09765         0.67395
   C       -3.41053         7.15750         1.57804
   C       -3.00761         5.80020         1.62345
   C       -4.05739         5.05990         2.27978
   O       -4.16273         3.88307         2.57928
   N       -5.04375         6.01913         2.57125
   C       -6.24639         5.61671         3.25947
   C       -7.34325         5.19606         2.28333
   C       -4.67318         7.27652         2.14778
   C       -5.38973         8.50483         2.23751
   C       -6.69605         8.71763         2.48818
   C       -7.27267        10.04701         2.50546
   N       -8.60436        10.10041         2.61625
   C       -9.15773        11.29979         2.60939
   C       -8.41156        12.46065         2.50728
   C       -7.01812        12.31131         2.42475
   N       -6.46731        11.09868         2.41824
   C       -6.14922        13.46552         2.36557
   C       -4.80731        13.36675         2.35540
   C       -3.91365        14.47980         2.34370
   S       -2.20020        14.21783         2.53972
   C       -1.86779        15.91774         2.48952
   C       -3.04110        16.64419         2.28290
   C       -4.18284        15.82015         2.22251
   C       -3.11845        18.07156         2.00365
   O       -4.12726        18.73167         2.05617
   C       -0.54041        16.37648         2.72901
   C       -0.23396        17.58523         3.25043
   C        1.09134        18.05484         3.49133
   S        1.31244        19.59372         4.28823
   C        3.03423        19.45144         4.23201
   C        3.41149        18.27285         3.59961
   C        2.30634        17.49049         3.19838
   C        4.77864        17.90407         3.25057
   O        5.12660        16.80376         2.90159
   C        3.84026        20.47213         4.84898
   C        5.02956        20.27312         5.41271
   H        2.60080        -0.47693        -0.64295
   H        4.39170         1.37131        -1.46335
   H        3.63546         2.92358        -1.90660
   H        3.01935         0.22787        -3.23202
   H        4.02810         1.50294        -3.92392
   H        2.30278         1.78278        -3.66789
   H       -2.21227        -0.44474         2.41476
   H       -2.95400         1.14377         2.09681
   H       -0.83406         0.55139         4.22712
   H       -2.55499         0.81847         4.52978
   H       -1.55405         2.13937         3.92388
   H       -2.29063         3.22015         1.80440
   H       -0.03935         4.62882         0.26532
   H        0.67049         6.80630         0.34265
   H       -0.07939         8.38713         0.00583
   H       -0.34161         5.88082        -1.73882
   H        0.60753         7.31864        -2.10749
   H       -1.15501         7.42503        -2.03797
   H       -6.57563         6.42795         3.91120
   H       -5.97276         4.75487         3.87664
   H       -7.57549         5.99509         1.58296
   H       -8.24430         4.93373         2.83086
   H       -7.01437         4.32800         1.71740
   H       -4.77944         9.37264         2.01892
   H       -7.41623         7.93248         2.64675
   H      -10.23754        11.32189         2.69148
   H       -8.87286        13.43471         2.50168
   H       -6.63900        14.42839         2.35407
   H       -4.36519        12.38035         2.37936
   H       -5.16393        16.22890         2.06335
   H       -2.15995        18.52127         1.67836
   H        0.24865        15.66444         2.53123
   H       -1.02785        18.25532         3.55006
   H        2.43386        16.55234         2.69014
   H        5.49672        18.74517         3.29229
   H        3.38776        21.45541         4.88019
   H        5.48158        19.29814         5.47313
   H        5.57635        21.08697         5.85598
*
