# ORCA input file
# SCF done       -164.861412494545          0.000535492118
! CAM-B3LYP def2-SVP def2/J RIJCOSX Grid4 TightSCF
%maxcore 5000
%tddft
    Mode sTDDFT
    Ethresh 5.0
    maxcore 5000
end

%pal
  nprocs 6
  end
* xyz 0 1
   C        6.06997        -4.41637         0.26181
   S        4.68789        -4.98250         1.07246
   C        3.65011        -4.67845        -0.29022
   C        4.38449        -4.10013        -1.33800
   C        5.78051        -3.96901        -1.01169
   C        6.68189        -3.41282        -1.94434
   C        6.21043        -2.96550        -3.15104
   C        7.09678        -2.40340        -4.10005
   N        7.82858        -1.95068        -4.85600
   C        4.81290        -3.03669        -3.45400
   C        4.34210        -2.51452        -4.68016
   N        3.93562        -2.09774        -5.66720
   C        3.92263        -3.59023        -2.56316
   C        2.28494        -5.03083        -0.17792
   C        1.43171        -5.26762        -1.21290
   C        0.05759        -5.57161        -1.10442
   S       -0.69683        -6.41063        -2.42074
   C       -2.24813        -6.50946        -1.63507
   C       -2.18398        -5.84758        -0.38481
   C       -0.88514        -5.31178        -0.09481
   C       -0.68797        -4.54587         1.06543
   C       -1.72155        -4.36225         1.95459
   C       -1.51611        -3.60161         3.12849
   N       -1.32238        -2.98697         4.07574
   C       -3.00443        -4.91807         1.68408
   C       -4.06476        -4.71460         2.59630
   N       -4.93647        -4.56622         3.32495
   C       -3.22832        -5.62795         0.52509
   C       -3.31671        -7.21881        -2.21230
   S       -4.69826        -7.69434        -1.26559
   C       -5.44551        -8.57817        -2.55969
   C       -4.66596        -8.46508        -3.72872
   C       -3.46310        -7.70891        -3.53314
   C       -2.61239        -7.48594        -4.62592
   C       -2.92404        -7.99636        -5.86661
   C       -2.05329        -7.77283        -6.95820
   N       -1.33420        -7.58528        -7.82995
   C       -4.12987        -8.72519        -6.06373
   C       -4.46102        -9.21038        -7.34991
   N       -4.75054        -9.62111        -8.37943
   C       -4.98837        -8.93851        -5.00877
   C       -6.66037        -9.22163        -2.27330
   C       -7.28728       -10.20542        -2.98671
   C       -8.53929       -10.73575        -2.63868
   S       -9.48032       -10.10844        -1.32244
   C      -10.78446       -11.22466        -1.57269
   C      -10.51550       -12.05075        -2.68085
   C       -9.23708       -11.78419        -3.27255
   C       -8.80070       -12.53577        -4.37337
   C       -9.61248       -13.51400        -4.90080
   C       -9.17353       -14.29014        -5.99787
   N       -8.80104       -14.91752        -6.88109
   C      -10.90855       -13.74183        -4.35180
   C      -11.75367       -14.71826        -4.92778
   N      -12.45942       -15.50588        -5.36862
   C      -11.34832       -13.01818        -3.26700
   C      -11.87238       -11.14307        -0.67162
   C      -12.87340       -12.03585        -0.47432
   C      -13.93339       -11.84074         0.45228
   S      -14.06835       -10.40348         1.44322
   C      -15.49990       -10.98302         2.15411
   C      -15.88246       -12.21352         1.67381
   C      -14.97975       -12.69761         0.70088
   C      -17.10671       -12.88295         2.16189
   O      -17.79918       -12.38578         3.01987
   C      -17.42904       -14.20862         1.52186
   H        7.02565        -4.43265         0.74649
   H        7.72989        -3.33352        -1.69824
   H        2.87184        -3.59552        -2.80480
   H        1.94242        -5.20119         0.83347
   H        1.83081        -5.31852        -2.21679
   H        0.25999        -4.06828         1.25179
   H       -4.22496        -5.98613         0.32833
   H       -1.71669        -6.89618        -4.52461
   H       -5.92305        -9.44240        -5.18988
   H       -7.12674        -8.91555        -1.34317
   H       -6.80963       -10.64153        -3.84995
   H       -7.83215       -12.35697        -4.81471
   H      -12.34509       -13.18901        -2.89639
   H      -11.86746       -10.25959        -0.04282
   H      -12.90361       -12.97499        -1.00524
   H      -16.01355       -10.40432         2.89670
   H      -15.08417       -13.63913         0.19334
   H      -16.62101       -14.91431         1.70342
   H      -17.54585       -14.08432         0.44731
   H      -18.35108       -14.59943         1.94353
*
