# ORCA input file
# SCF done       -197.705421125745          0.000547735343
! CAM-B3LYP def2-SVP def2/J RIJCOSX Grid4 TightSCF
%maxcore 5000
%tddft
    Mode sTDDFT
    Ethresh 5.0
    maxcore 5000
end

%pal
  nprocs 6
  end
* xyz 0 1
   C        2.55481        -1.09377        -4.48424
   S        1.59350        -1.97360        -3.38477
   C        3.25416        -1.91462        -5.34270
   C        4.17335        -1.52709        -6.34242
   C        4.84508        -2.46516        -7.07813
   O        5.75942        -2.15395        -8.04432
   C        5.99255        -0.79916        -8.33922
   C        4.62737        -3.86076        -6.81065
   O        5.28133        -4.89368        -7.39791
   C        5.93238        -4.75658        -8.64260
   C        3.72380        -4.24058        -5.84385
   C        2.98285        -3.30165        -5.11574
   C        2.03759        -3.50068        -4.09509
   C        1.43405        -4.68427        -3.59302
   C        1.21318        -5.86534        -4.34575
   C        0.70608        -7.07646        -3.74456
   N        0.58014        -8.17899        -4.48426
   C        0.84936        -8.13771        -5.77382
   C        1.23274        -6.90793        -6.38977
   N        1.41582        -5.82688        -5.66991
   C        1.43322        -6.83450        -7.79003
   N        1.60424        -6.80883        -8.92290
   C        0.73553        -9.32064        -6.53883
   N        0.65005       -10.26396        -7.18542
   C        0.34194        -7.15668        -2.36123
   C        0.38999        -5.91547        -1.67268
   C        0.91691        -4.71700        -2.27612
   N        0.85997        -3.67657        -1.44835
   S        0.19101        -4.13770        -0.05735
   N       -0.04260        -5.68562        -0.44123
   C       -0.00420        -8.40083        -1.82229
   C       -0.20797        -8.79407        -0.51217
   C       -0.44151       -10.13349        -0.11701
   C       -0.49092       -10.33534         1.23529
   C       -0.29548        -9.15524         1.97111
   S       -0.10761        -7.78201         0.90263
   C       -0.21793        -8.91731         3.33611
   C       -0.36419        -9.75799         4.45628
   C       -0.20379        -9.11586         5.65057
   C        0.08984        -7.72821         5.54914
   S        0.12575        -7.28667         3.84801
   C        0.38267        -6.87996         6.58422
   C        0.76436        -5.50426         6.50552
   C        0.56357        -4.72589         5.35032
   C        1.07809        -3.46068         5.27819
   C        1.77632        -2.89638         6.36120
   C        1.92130        -3.62453         7.53850
   C        1.41861        -4.90625         7.60131
   C        2.20064        -1.56827         5.98325
   C        1.76587        -1.31589         4.66729
   C        1.07379        -2.52692         4.08891
   C        1.93015        -3.20520         2.99086
   C        2.29157        -2.33141         1.79649
   C       -0.34204        -2.22047         3.58303
   C       -1.23646        -1.65446         4.68005
   C        1.99104        -0.09458         4.08669
   C        2.71613         0.89380         4.77408
   C        3.16179         0.61779         6.07433
   C        2.89686        -0.59100         6.68439
   C        2.98473         2.12353         4.07257
   C        3.73995         3.15912         4.49332
   C        4.04045         4.32238         3.72646
   S        4.47765         5.77423         4.58072
   C        4.04925         4.55372         2.34967
   C        3.86569         3.63129         1.29305
   C        3.91880         4.05053        -0.00537
   O        3.75755         3.25353        -1.09324
   C        3.49328         1.88789        -0.88924
   C        4.16951         5.43600        -0.32414
   O        4.16914         5.70749        -1.65447
   C        4.41988         7.02906        -2.06057
   C        4.40233         6.33567         0.67215
   C        4.36399         5.91412         2.02527
   C        4.61148         6.67943         3.14147
   H        2.57352        -0.02258        -4.44355
   H        4.34050        -0.47267        -6.48934
   H        5.07952        -0.29838        -8.67584
   H        6.72314        -0.79917        -9.14673
   H        6.40539        -0.26533        -7.47727
   H        6.86621        -4.19752        -8.55260
   H        5.28931        -4.27529        -9.38163
   H        6.14716        -5.77653        -8.96134
   H        3.61255        -5.29543        -5.66668
   H       -0.05075        -9.19757        -2.55561
   H       -0.55056       -10.91626        -0.84750
   H       -0.64662       -11.29241         1.70139
   H       -0.57941       -10.80725         4.35621
   H       -0.27777        -9.59894         6.60938
   H        0.40296        -7.32706         7.57096
   H       -0.01764        -5.10699         4.52873
   H        2.43211        -3.19750         8.38888
   H        1.55241        -5.48634         8.50350
   H        1.38471        -4.08673         2.64507
   H        2.85543        -3.55434         3.45666
   H        1.40775        -1.91474         1.32058
   H        2.81720        -2.92993         1.05584
   H        2.94774        -1.51937         2.09848
   H       -0.78113        -3.14023         3.19056
   H       -0.28314        -1.50211         2.76439
   H       -1.33572        -2.36400         5.49850
   H       -2.22749        -1.44260         4.28548
   H       -0.81848        -0.73160         5.07658
   H        1.61888         0.12380         3.09650
   H        3.71334         1.37003         6.61689
   H        3.23113        -0.77566         7.69473
   H        2.51788         2.19232         3.10039
   H        4.13894         3.16240         5.49915
   H        3.72351         2.59091         1.52553
   H        3.38697         1.45459        -1.88213
   H        2.56415         1.73703        -0.32988
   H        4.31616         1.39040        -0.36543
   H        3.67000         7.72084        -1.66254
   H        4.36169         7.01992        -3.14765
   H        5.41709         7.36158        -1.75334
   H        4.62461         7.37020         0.46761
   H        4.86049         7.72067         3.18713
*
