# ORCA input file
# SCF done       -181.881546019088          0.000723968695
! CAM-B3LYP def2-SVP def2/J RIJCOSX Grid4 TightSCF
%maxcore 5000
%tddft
    Mode sTDDFT
    Ethresh 5.0
    maxcore 5000
end

%pal
  nprocs 6
  end
* xyz 0 1
   C       -0.62661         3.67214         2.21818
   C       -0.35878         3.67507         3.56308
   C        0.90490         3.39587         4.12113
   N        1.91105         3.17766         4.62902
   C       -1.31558         3.96681         4.55614
   N       -2.06335         4.20105         5.39516
   C        0.33541         3.38823         1.15524
   C       -0.31558         3.51192        -0.10003
   C        0.33180         3.30195        -1.29359
   C        1.68516         2.95036        -1.24904
   C        2.32543         2.82800         0.00669
   C        1.67083         3.04279         1.21477
   S        3.99453         2.38219        -0.16748
   C        3.81365         2.36593        -1.90155
   C        2.56734         2.67864        -2.33009
  Br        5.28528         1.93793        -2.98256
   C       -1.71863         3.87372         0.13073
   O       -2.58894         4.07013        -0.71781
   C       -1.88999         3.95415         1.58026
   C       -3.11232         4.24448         2.14521
   N       -4.16695         4.46977         1.35943
   C       -5.44237         4.74561         1.73299
   S       -5.90381         4.83836         3.40522
   C       -7.52585         5.18257         2.90791
   N       -8.49373         5.38786         3.90121
   O       -9.62971         5.62827         3.53663
   O       -8.12194         5.30806         5.05779
   C       -7.69355         5.22198         1.54974
   C       -6.50045         4.97275         0.84208
   C       -6.35495         4.96050        -0.58596
   C       -7.36873         5.14271        -1.45581
   N       -7.19351         5.19263        -2.80176
   C       -8.21606         5.25184        -3.73852
   C       -9.49523         4.81753        -3.54695
   S      -10.48216         5.07054        -4.92769
   C       -9.17402         5.76440        -5.79287
   C       -8.02732         5.81378        -5.04930
   N       -6.81778         6.34672        -5.44217
   C       -6.55923         6.96753        -6.62055
   C       -5.35172         7.51712        -6.89503
   C       -4.98266         8.21475        -8.07767
   C       -5.82375         8.50767        -9.17785
   C       -5.35598         9.25782       -10.32164
   N       -6.19011         9.51965       -11.33108
   C       -7.43414         9.09268       -11.28352
   C       -7.89746         8.34894       -10.15666
   N       -7.09681         8.08123        -9.15154
   C       -9.23016         7.87530       -10.08581
   N      -10.30532         7.48405       -10.01491
   C       -8.30686         9.38074       -12.35814
   N       -9.04290         9.59571       -13.21055
   C       -4.01687         9.74975       -10.42828
   C       -3.17903         9.43883        -9.32814
   C       -3.65561         8.69542        -8.18889
   N       -2.70044         8.52261        -7.27417
   S       -1.34304         9.21802        -7.78723
   N       -1.90190         9.77207        -9.19339
   C       -3.66126        10.47931       -11.57133
   C       -2.48489        11.08278       -11.95958
   C       -2.37361        11.79067       -13.18584
   C       -1.14993        12.33509       -13.42270
   C       -0.22107        12.08293       -12.38855
   S       -0.95728        11.13257       -11.11149
   C        1.09476        12.49153       -12.31645
   C        1.81546        13.26428       -13.26717
   C        3.09965        13.51496       -12.92387
   C        3.49377        12.95317       -11.66475
   S        2.11785        12.08972       -10.95735
   C        4.69195        13.03399       -11.06821
   H       -0.18761         3.40295        -2.23361
   H        2.20238         2.93618         2.14546
   H        2.28107         2.71558        -3.36526
   H       -3.26352         4.29507         3.21541
   H       -3.94692         4.40164         0.34913
   H       -8.64872         5.43020         1.10550
   H       -5.36168         4.80247        -0.98342
   H       -8.38418         5.29544        -1.12773
   H       -6.24949         5.07223        -3.14258
   H       -9.91171         4.35176        -2.67765
   H       -9.33824         6.10819        -6.79312
   H       -6.07746         6.36632        -4.75288
   H       -7.36353         7.00439        -7.33435
   H       -4.55895         7.44658        -6.16014
   H       -4.47757        10.58841       -12.27662
   H       -3.21286        11.87337       -13.85416
   H       -0.89948        12.90163       -14.30158
   H        1.35239        13.60822       -14.17483
   H        3.79664        14.08174       -13.51498
   H        5.50149        13.56884       -11.53256
   H        4.88216        12.57227       -10.11682
*
