# ORCA input file
# SCF done       -171.038034559328          0.000452681057
! CAM-B3LYP def2-SVP def2/J RIJCOSX Grid4 TightSCF
%maxcore 5000
%tddft
    Mode sTDDFT
    Ethresh 5.0
    maxcore 5000
end

%pal
  nprocs 6
  end
* xyz 0 1
   C      -12.25634         0.38357         3.46136
   C      -12.19484         0.62118         4.81123
   C      -12.10222        -0.38877         5.79084
   N      -12.01700        -1.16314         6.63407
   C      -12.21479         1.90009         5.40210
   N      -12.22841         2.91787         5.93486
   C      -12.28986        -0.93103         2.83054
   C      -12.39383        -0.76282         1.42739
   C      -12.45372        -1.82203         0.55553
   C      -12.41579        -3.11272         1.09444
   C      -12.30985        -3.27197         2.49669
   C      -12.24508        -2.19930         3.37789
   S      -12.27397        -4.94872         2.94864
   C      -12.40214        -5.40760         1.27144
   C      -12.46827        -4.36020         0.41512
  Br      -12.43344        -7.22451         0.80973
   C      -12.41741         0.67517         1.11034
   O      -12.38359         1.18199         0.00412
   C      -12.36144         1.37201         2.40930
   C      -12.24960         2.72957         2.55401
   N      -12.54537         3.64900         1.61413
   C      -13.44383         3.54330         0.58014
   S      -14.86253         2.55611         0.71428
   C      -15.45240         3.23645        -0.76213
   N      -16.67845         2.76457        -1.24873
   O      -17.10315         3.24670        -2.28119
   O      -17.23195         1.90034        -0.59098
   C      -14.61558         4.17146        -1.30977
   C      -13.44318         4.35820        -0.55160
   C      -12.40135         5.27979        -0.92527
   C      -11.10449         5.13989        -0.59357
   N      -10.09299         5.99715        -0.92424
   C      -10.20623         7.30533        -1.37996
   C      -11.20849         8.18593        -1.09750
   S      -10.92375         9.73737        -1.77518
   C       -9.43447         9.21600        -2.45437
   C       -9.16991         7.90549        -2.17703
   N       -8.05761         7.19186        -2.57572
   C       -6.90994         7.73808        -3.07573
   C       -5.91181         7.01285        -3.62091
   C       -4.69453         7.56247        -4.09052
   S       -4.30635         9.25189        -4.02144
   C       -2.73456         9.04137        -4.75017
   C       -2.53031         7.68874        -5.03912
   C       -3.63641         6.85447        -4.66432
   N       -3.61993         5.51994        -4.85931
   C       -2.54241         5.04135        -5.40861
   N       -1.45029         5.72235        -5.80184
   C       -1.44108         7.01556        -5.62271
   C       -1.85510        10.12132        -4.97014
   C       -2.13119        11.40841        -4.63940
   C       -1.26946        12.52409        -4.82943
   C       -1.62262        13.85857        -4.44641
   C       -0.57643        14.71207        -4.75430
   C       -0.42181        16.10158        -4.58030
   C        0.75641        16.66674        -4.99477
   C        1.22573        18.01678        -4.96438
   C        2.49655        18.05822        -5.51150
   C        2.85223        16.73002        -5.89826
   C        1.80707        15.86775        -5.59155
   C        1.65503        14.48169        -5.76528
   C        0.47400        13.91113        -5.34982
   C        0.00898        12.56672        -5.37906
   C        3.36240        19.20018        -5.69077
   C        3.08037        20.44842        -5.32817
   H      -12.53444        -1.66166        -0.50805
   H      -12.16333        -2.37287         4.43772
   H      -12.55134        -4.46186        -0.65151
   H      -11.86939         3.14412         3.47847
   H      -12.14539         4.57549         1.72421
   H      -14.83438         4.68119        -2.23045
   H      -12.70324         6.08882        -1.57243
   H      -10.76388         4.25260        -0.07685
   H       -9.15001         5.67085        -0.77704
   H      -12.08267         8.02653        -0.50132
   H       -8.85480         9.90356        -3.03405
   H       -8.15486         6.18923        -2.65892
   H       -6.82389         8.80897        -2.97202
   H       -5.99459         5.94017        -3.72933
   H       -2.50910         3.97211        -5.57317
   H       -0.55238         7.54389        -5.94664
   H       -0.90798         9.87197        -5.42760
   H       -3.09069        11.62224        -4.18306
   H       -2.55765        14.13472        -3.99166
   H       -1.21161        16.68996        -4.13412
   H        0.66623        18.84755        -4.57699
   H        3.78733        16.45533        -6.35420
   H        2.44455        13.89268        -6.21086
   H        0.56748        11.73453        -5.76508
   H        4.31308        18.98375        -6.16258
   H        2.14947        20.71011        -4.85516
   H        3.77457        21.25400        -5.49286
*
