# ORCA input file
# SCF done       -190.229540649038          0.000295531900
! CAM-B3LYP def2-SVP def2/J RIJCOSX Grid4 TightSCF
%maxcore 5000
%tddft
    Mode sTDDFT
    Ethresh 5.0
    maxcore 5000
end

%pal
  nprocs 6
  end
* xyz 0 1
   C        9.82006       -16.38538         8.17972
   C        9.16965       -15.42234         7.50999
   C        7.75654       -15.18800         7.45759
   C        7.39563       -14.13220         6.69174
   C        8.48486       -13.45253         6.08335
   S        9.99723       -14.20889         6.51971
   C        8.41861       -12.34580         5.25799
   C        7.26314       -11.64499         4.84695
   C        7.51431       -10.59068         4.01941
   C        8.87926       -10.39011         3.72513
   S        9.83896       -11.60468         4.56518
   C        9.57305        -9.44113         2.99838
   C        9.19106        -8.38026         2.16345
   C        7.91817        -8.10507         1.57832
   C        7.67670        -6.93941         0.75259
   N        6.46406        -6.75572         0.21814
   C        5.50658        -7.63370         0.42427
   C        5.75111        -8.79021         1.21487
   N        6.93400        -8.98420         1.76290
   C        4.73646        -9.74948         1.44174
   N        3.89956       -10.50929         1.63347
   C        4.24036        -7.41581        -0.17102
   N        3.20986        -7.27172        -0.65124
   C        8.69344        -5.98383         0.47011
   C        9.97673        -6.30823         0.97796
   C       10.22172        -7.46804         1.78617
   N       11.49790        -7.55473         2.14830
   S       12.31482        -6.31040         1.53242
   N       11.08024        -5.59459         0.78102
   C        8.49763        -4.79080        -0.25608
   S        9.86735        -3.73873        -0.58640
   C        7.30026        -4.27124        -0.76305
   C        7.46999        -3.06659        -1.41302
   C        6.66140        -2.05049        -2.09370
   C        5.32616        -2.05760        -2.30144
   C        4.62089        -0.92888        -3.01336
   N        4.71438        -1.03482        -4.46416
   C        4.44731        -3.18729        -1.82197
   N        4.12628        -3.07239        -0.40514
   C        8.82701        -2.64086        -1.39620
   C        8.92360        -1.41167        -2.04048
   S       10.15189        -0.27750        -2.44766
   C        7.62975        -1.01916        -2.47905
   C        7.66075         0.18748        -3.14923
   C        8.94664         0.73461        -3.21795
   C        9.30328         1.95839        -3.82068
   C       10.64802         2.40037        -3.82593
   C       11.06615         3.64648        -4.42298
   N       12.34991         3.98474        -4.38762
   C       13.23631         3.19158        -3.80998
   C       12.82077         1.96622        -3.21795
   N       11.55483         1.60999        -3.24354
   C       13.76500         1.11470        -2.59404
   N       14.55382         0.44939        -2.09630
   C       14.59732         3.57062        -3.78588
   N       15.71244         3.83518        -3.74275
   C       10.13844         4.52484        -5.04888
   C        8.78368         4.07142        -5.04329
   C        8.36986         2.82671        -4.44978
   N        7.06031         2.63425        -4.57422
   S        6.40910         3.88521        -5.35883
   N        7.76330         4.73307        -5.57525
   C       10.41983         5.75492        -5.64763
   C       11.59235         6.46798        -5.82482
   C       11.60803         7.72579        -6.47634
   C       12.83942         8.30237        -6.57758
   C       13.85979         7.51679        -6.00674
   S       13.20908         6.03150        -5.33538
   C       15.21406         7.79305        -5.93831
   C       15.88827         8.94334        -6.43160
   C       17.22502         8.93347        -6.22138
   C       17.70127         7.76431        -5.54145
   S       16.33701         6.68986        -5.19176
   C       18.96403         7.46961        -5.19686
   H        9.27943       -17.10428         8.76965
   H       10.89073       -16.47085         8.14951
   H        7.07361       -15.82073         7.99572
   H        6.38008       -13.81377         6.53858
   H        6.27695       -11.92865         5.16726
   H        6.75273        -9.95260         3.61672
   H       10.65102        -9.49449         3.11190
   H        6.38065        -4.80539        -0.62222
   H        5.03360         0.03822        -2.71909
   H        3.55787        -0.93817        -2.75560
   H        5.68510        -0.99259        -4.75643
   H        4.33721        -1.92484        -4.77383
   H        4.92457        -4.15562        -1.98372
   H        3.50148        -3.18266        -2.37033
   H        4.97409        -3.09571         0.15139
   H        3.65818        -2.19098        -0.22152
   H        6.83540         0.70781        -3.59775
   H        9.53684         6.23961        -6.05026
   H       10.70133         8.16739        -6.85198
   H       13.02437         9.25453        -7.04234
   H       15.35637         9.73725        -6.92517
   H       17.90280         9.71255        -6.52189
   H       19.77027         8.14445        -5.42560
   H       19.20732         6.55582        -4.68635
*
