# ORCA input file
# SCF done       -196.273276630395          0.000573603009
! CAM-B3LYP def2-SVP def2/J RIJCOSX Grid4 TightSCF
%maxcore 5000
%tddft
    Mode sTDDFT
    Ethresh 5.0
    maxcore 5000
end

%pal
  nprocs 6
  end
* xyz 0 2
   C       11.18995        -8.89754       -10.02923
   C       10.15679        -8.96587        -9.17351
   C        8.90074        -9.62723        -9.36083
   C        8.05496        -9.51388        -8.30724
   C        8.57625        -8.76211        -7.22379
   S       10.18569        -8.19842        -7.57769
   C        7.94913        -8.46649        -6.02043
   C        6.66217        -8.84321        -5.59955
   C        6.35001        -8.36595        -4.35724
   C        7.36509        -7.59763        -3.74634
   S        8.75408        -7.50278        -4.79972
   C        7.18929        -7.01570        -2.49822
   C        8.00367        -6.22170        -1.69654
   C        9.33476        -5.80157        -1.97895
   C       10.08370        -4.98697        -1.05910
   N       11.30909        -4.58834        -1.37585
   C       11.85024        -4.94498        -2.53364
   C       11.12393        -5.76526        -3.42707
   N        9.89700        -6.16576        -3.12685
   C       11.69930        -6.16416        -4.65714
   N       12.20511        -6.46199        -5.64163
   C       13.15295        -4.49802        -2.85302
   N       14.20778        -4.15488        -3.14182
   C        9.58384        -4.58249         0.21830
   C        8.21150        -4.90957         0.45353
   C        7.45903        -5.71168        -0.47258
   N        6.19877        -5.86096        -0.09404
   S        5.95551        -5.04330         1.28345
   N        7.46110        -4.47514         1.45186
   C       10.40848        -3.85474         1.07229
   S       11.90249        -3.17399         0.44324
   C       12.14946        -2.32130         1.94302
   C       13.03548        -1.49080         2.53525
   C       12.64152        -1.22478         3.90914
   C       13.65888        -0.41961         4.25960
   S       14.48491        -0.48439         2.63543
   C       11.38036        -1.95943         4.23935
   C       11.12696        -2.63934         2.91444
   C       10.19110        -3.51246         2.44845
   C        9.19557        -4.13815         3.32937
   C        9.24904        -5.51943         3.53088
   C        8.38023        -6.10039         4.42647
   C        7.41101        -5.31507         5.07477
   C        7.36800        -3.94174         4.88849
   C        8.28570        -3.35742         4.03778
   C        6.56142        -6.18542         5.85816
   C        7.02091        -7.50626         5.71491
   C        8.27907        -7.54188         4.87242
   C        8.18946        -8.53405         3.70653
   C        6.97678        -8.27699         2.82120
   C        9.43911        -7.90066         5.83508
   C       10.83980        -7.81850         5.24358
   C        6.37134        -8.53909         6.34161
   C        5.23179        -8.27757         7.12525
   C        4.78849        -6.95110         7.25742
   C        5.44254        -5.91054         6.63385
   C        4.57022        -9.38138         7.76212
   C        3.47396        -9.32005         8.55942
   C        2.91203       -10.48383         9.13201
   C        1.80819       -10.50514         9.93803
   C        1.19611       -11.67366        10.54259
   C        1.61794       -12.97523        10.43902
   C        0.97442       -14.06923        11.05412
   N        0.50329       -15.00402        11.52654
   C        2.74252       -13.42366         9.71645
   N        3.63825       -13.87644         9.15707
   C        0.03323       -11.22408        11.29963
   C       -0.07350        -9.81604        11.18004
   C        1.02296        -9.31058        10.33427
   O        1.22212        -8.15008        10.03564
   C       -1.07378        -9.09451        11.78525
   C       -2.01643        -9.79352        12.54495
   C       -1.90306       -11.19960        12.65849
   C       -0.89098       -11.92984        12.04725
   S       -3.17477       -11.85496        13.64208
   C       -3.83254       -10.27412        13.88723
   C       -3.13872        -9.29596        13.26546
   H       11.14021        -9.37417       -10.99251
   H       12.09096        -8.36791        -9.77956
   H        8.68377       -10.15645       -10.27147
   H        7.07014        -9.94475        -8.27109
   H        6.00024        -9.44138        -6.20002
   H        5.41091        -8.54284        -3.86220
   H        6.21566        -7.20120        -2.05672
   H       13.97742         0.11173         5.13214
   H       10.56509        -1.28839         4.51649
   H       11.50679        -2.68346         5.04756
   H        9.96504        -6.10731         2.97525
   H        6.63119        -3.33945         5.39814
   H        8.26759        -2.29116         3.87146
   H        8.14099        -9.54856         4.10783
   H        9.09357        -8.45659         3.10105
   H        6.05377        -8.37483         3.38818
   H        6.95246        -8.98463         1.99569
   H        7.01799        -7.27137         2.41072
   H        9.26471        -8.91501         6.20087
   H        9.38129        -7.22648         6.69400
   H       11.56580        -8.11449         5.99786
   H       11.07156        -6.80344         4.93214
   H       10.95138        -8.48378         4.39163
   H        6.71839        -9.55747         6.23872
   H        3.91763        -6.74067         7.85743
   H        5.08766        -4.89708         6.74543
   H        5.00745       -10.35687         7.57677
   H        2.99478        -8.38013         8.78206
   H        3.40549       -11.41941         8.90113
   H       -1.12606        -8.02242        11.67420
   H       -0.85021       -12.99960        12.16531
   H       -4.71289       -10.17413        14.49202
   H       -3.39947        -8.25376        13.30570
*
