# ORCA input file
# SCF done       -215.550225816302          0.000793039977
! CAM-B3LYP def2-SVP def2/J RIJCOSX Grid4 TightSCF
%maxcore 5000
%tddft
    Mode sTDDFT
    Ethresh 5.0
    maxcore 5000
end

%pal
  nprocs 6
  end
* xyz 0 1
   C        0.95972        -3.02697        -0.44924
   C        1.88492        -1.99932        -0.54622
   C        2.14065        -1.45050        -1.80342
   C        3.07965        -0.39557        -1.92483
   N        3.83672         0.45842        -2.01370
   C        1.48256        -1.92434        -2.95535
   C        1.75914        -1.34216        -4.21598
   N        1.96800        -0.88048        -5.24278
   C        0.56093        -2.96704        -2.85494
   C        0.31235        -3.49901        -1.60694
   C       -0.60839        -4.60523        -1.25505
   O       -1.25227        -5.27165        -2.02890
   C       -0.47073        -4.77362         0.21748
   C        0.47088        -3.77680         0.70581
   C        0.77600        -3.51817         2.01205
   C        1.67738        -2.51453         2.43257
   N        2.40155        -1.71749         2.82712
   C        0.21144        -4.18632         3.12290
   N       -0.21541        -4.66050         4.07606
   C       -1.00186        -5.79636         0.92829
   C       -2.02413        -6.70713         0.46869
   C       -1.92020        -8.05411         0.80982
   F       -0.84522        -8.44316         1.51508
   C       -2.84641        -9.02717         0.43331
   O       -2.59912       -10.28143         0.87453
   C       -3.66573       -11.16766         1.13370
   C       -3.93093        -8.59900        -0.34267
   C       -4.07513        -7.24124        -0.63710
   C       -3.17107        -6.26153        -0.23393
   O       -3.29711        -4.93271        -0.37472
   C       -4.43663        -4.37035        -0.99711
   F       -5.13551        -6.90751        -1.40922
   C       -4.92580        -9.51630        -0.92245
   C       -6.28745        -9.40577        -0.62590
   C       -7.27089       -10.23060        -1.27194
   N       -8.58722       -10.04083        -0.99864
   C       -8.91521        -9.14799        -0.13310
   C       -7.93108        -8.37245         0.55875
   N       -6.67463        -8.50566         0.31577
   F       -8.29749        -7.50103         1.49196
   F      -10.20700        -8.97448         0.12484
   C       -6.90905       -11.20852        -2.20363
   C       -5.54839       -11.33258        -2.49640
   C       -4.56107       -10.47938        -1.86733
   N       -3.32495       -10.74743        -2.30929
   S       -3.40336       -11.93623        -3.37133
   N       -4.97688       -12.19814        -3.34411
   C       -7.92891       -12.02025        -2.87471
   C       -8.01471       -12.03971        -4.25108
   F       -7.14025       -11.32397        -4.97111
   C       -9.01708       -12.72513        -4.95905
   O       -8.96896       -12.53707        -6.28738
   C       -9.99542       -12.94331        -7.16220
   C       -9.97019       -13.43158        -4.20789
   C       -9.85186       -13.42486        -2.80380
   C       -8.86377       -12.74981        -2.10844
   O       -8.65708       -12.75938        -0.77368
   C       -9.72567       -13.05524         0.10667
   F      -10.74168       -14.19218        -2.11974
   C      -11.03940       -14.21584        -4.79930
   C      -12.32450       -14.31770        -4.39106
   C      -13.15982       -15.44639        -4.89102
   O      -12.91475       -16.16925        -5.82546
   C      -14.31524       -15.50433        -3.96871
   C      -15.32367       -16.44379        -3.91555
   C      -16.29602       -16.31030        -2.92351
   C      -16.23103       -15.24186        -2.00766
   C      -15.21190       -14.29092        -2.07556
   C      -14.25231       -14.42334        -3.06559
   C      -13.10208       -13.58720        -3.40291
   C      -12.90480       -12.29774        -2.99824
   C      -11.92602       -11.44892        -3.55903
   N      -11.18962       -10.71797        -4.04779
   C      -13.70667       -11.64070        -2.03894
   N      -14.31906       -11.07845        -1.24941
   C      -17.21840       -15.13278        -0.99630
   N      -18.01003       -15.03854        -0.17503
   C      -17.34721       -17.25485        -2.83274
   N      -18.18888       -18.02885        -2.77514
   H        2.41266        -1.61463         0.31189
   H        0.05283        -3.34616        -3.72867
   H       -0.61514        -6.00843         1.91794
   H       -4.55335       -10.63778         1.48599
   H       -3.30677       -11.83456         1.91822
   H       -3.92155       -11.76289         0.25336
   H       -4.30290        -3.29300        -0.91077
   H       -5.35811        -4.66368        -0.48961
   H       -4.49204        -4.64599        -2.05190
   H      -10.98438       -12.78578        -6.72401
   H       -9.87942       -13.98847        -7.45972
   H       -9.88679       -12.31269        -8.04503
   H       -9.96467       -14.12098         0.11645
   H      -10.61830       -12.47776        -0.14500
   H       -9.37378       -12.75955         1.09385
   H      -10.76187       -14.90204        -5.59109
   H      -15.35767       -17.26066        -4.62037
   H      -15.18888       -13.48853        -1.35515
*
