# ORCA input file
# SCF done       -181.827401930310          0.000850091541
! CAM-B3LYP def2-SVP def2/J RIJCOSX Grid4 TightSCF
%maxcore 5000
%tddft
    Mode sTDDFT
    Ethresh 5.0
    maxcore 5000
end

%pal
  nprocs 6
  end
* xyz 0 1
   C       -2.50197         1.99551        -2.47738
   C       -1.66956         2.77953        -3.23615
   C       -1.94018         3.16588        -4.56075
   N       -2.13469         3.55181        -5.62514
   C       -0.41274         3.22545        -2.77732
   N        0.64556         3.54199        -2.46392
   C       -3.61045         1.19597        -2.98702
   C       -3.87790         0.15430        -2.05055
   C       -4.84163        -0.78362        -2.28080
   C       -5.60281        -0.71296        -3.47029
   C       -5.34932         0.33444        -4.40222
   C       -4.33592         1.28643        -4.14310
   C       -6.12178         0.39701        -5.57951
   C       -7.09653        -0.53051        -5.82832
   C       -7.34446        -1.56228        -4.91107
   C       -6.61301        -1.65165        -3.75780
   C       -2.99080         0.30938        -0.87932
   O       -2.90264        -0.41219         0.08807
   C       -2.27905         1.59486        -1.10761
   C       -1.73129         2.26028        -0.04682
   C       -1.46512         3.63211         0.08879
   C       -0.82611         4.22195         1.19876
   O       -0.34171         3.43842         2.17051
   C        0.32019         4.06492         3.25073
   C       -0.77483         5.61367         1.12335
   C       -1.36893         6.12179        -0.02162
   S       -2.00490         4.85687        -1.02041
   C       -1.48997         7.47103        -0.45133
   C       -1.12036         8.59703         0.31958
   C       -1.27960         9.93813        -0.19008
   N       -0.89922        10.97189         0.56266
   C       -0.39077        10.78581         1.75643
   C       -0.25760         9.45692         2.26704
   N       -0.61831         8.42055         1.54971
   C        0.27259         9.22355         3.56120
   N        0.70249         9.03226         4.60533
   C        0.03386        11.89830         2.52272
   N        0.40180        12.76389         3.17621
   C       -1.82708        10.23928        -1.46904
   C       -2.09499         9.10434        -2.27465
   C       -1.95682         7.76415        -1.75212
   N       -2.26198         6.84279        -2.66431
   S       -2.63791         7.56998        -4.04521
   N       -2.45821         9.07994        -3.55613
   C       -2.04077        11.59360        -1.83140
   C       -2.76821        12.13259        -2.91961
   O       -3.45422        11.34444        -3.75084
   C       -4.11733        11.94950        -4.84133
   C       -2.73189        13.52800        -2.97026
   C       -2.00843        14.09541        -1.93948
   S       -1.39594        12.87235        -0.84943
   C       -1.76719        15.44283        -1.59789
   C       -1.88715        16.57942        -2.34773
   C       -1.63691        17.91435        -1.82636
   C       -1.70515        18.29230        -0.51146
   C       -1.48699        19.61212        -0.06387
   N       -1.31611        20.66735         0.35402
   C       -2.07975        17.44310         0.55246
   N       -2.41850        16.82266         1.45715
   C       -1.42532        18.80526        -2.95862
   C       -1.69115        18.07808        -4.15343
   C       -2.06250        16.69233        -3.81985
   O       -2.41589        15.84007        -4.60867
   C       -1.59072        18.65641        -5.38621
   C       -1.20367        20.01182        -5.48115
   C       -0.92661        20.74320        -4.28986
   C       -1.04508        20.11894        -3.02671
   C       -0.53631        22.09336        -4.39755
   C       -0.42541        22.69461        -5.62184
   C       -0.69859        21.97386        -6.79399
   C       -1.07995        20.66129        -6.72513
   H       -5.02410        -1.57123        -1.56488
   H       -4.16507         2.07446        -4.86030
   H       -5.92493         1.19177        -6.28417
   H       -7.68178        -0.47453        -6.73406
   H       -8.11773        -2.28565        -5.12252
   H       -6.79971        -2.44403        -3.04771
   H       -1.57735         1.67136         0.85225
   H        0.62604         3.25947         3.91537
   H       -0.34726         4.74730         3.78425
   H        1.20244         4.61256         2.90887
   H       -0.32320         6.25501         1.85551
   H       -4.53149        11.12690        -5.42106
   H       -3.42328        12.52352        -5.46042
   H       -4.92594        12.60338        -4.50116
   H       -3.21732        14.11726        -3.72394
   H       -1.38873        15.56338        -0.58851
   H       -1.80140        18.08615        -6.27888
   H       -0.82257        20.69539        -2.14276
   H       -0.32842        22.64437        -3.49214
   H       -0.12615        23.72946        -5.69370
   H       -0.60517        22.46366        -7.75169
   H       -1.29152        20.10136        -7.62441
*
