# ORCA input file
# SCF done       -200.976324995458          0.000809508690
! CAM-B3LYP def2-SVP def2/J RIJCOSX Grid4 TightSCF
%maxcore 5000
%tddft
    Mode sTDDFT
    Ethresh 5.0
    maxcore 5000
end

%pal
  nprocs 6
  end
* xyz 0 1
   C        1.43725         7.19953         4.59620
   C        1.11383         8.12060         5.55941
   C        2.02826         8.62091         6.50869
   N        2.72639         9.06027         7.30760
   C       -0.15217         8.72617         5.70426
   N       -1.14172         9.28318         5.87568
   C        2.76352         6.64429         4.35827
   C        2.72020         5.87357         3.16219
   C        3.82227         5.22866         2.68077
   C        5.04164         5.32454         3.38869
   C        5.08990         6.08386         4.59315
   C        3.93181         6.74295         5.06635
   C        6.30809         6.16108         5.29833
   C        7.42659         5.52246         4.83635
   C        7.37871         4.77763         3.64864
   C        6.21181         4.68141         2.94010
   C        1.35187         5.88717         2.60933
   O        0.97265         5.29478         1.62465
   C        0.54604         6.68544         3.57507
   C       -0.81728         6.72377         3.61718
   C       -1.70951         6.33659         2.59088
   C       -1.57561         6.36053         1.18352
   C       -2.79485         5.88233         0.65487
   C       -3.62397         5.64592         1.79339
   N       -2.96989         5.92620         2.92065
   O       -4.88012         5.25722         1.76836
   C       -5.50110         5.09249         3.03288
   C       -2.67914         5.97499        -0.75734
   N       -1.48750         6.54024        -1.08624
   C       -0.81971         6.78304         0.04098
   O        0.35009         7.36678         0.07671
   C        0.91672         7.70213        -1.18031
   C       -3.62149         5.56800        -1.73472
   C       -3.67969         6.17243        -3.01835
   C       -4.58946         5.70424        -4.02943
   N       -4.64011         6.33509        -5.20960
   C       -3.78826         7.28611        -5.46363
   C       -2.88055         7.72997        -4.48026
   N       -2.88139         7.21609        -3.28434
   C       -5.45420         4.59876        -3.79924
   C       -5.39299         4.00091        -2.52296
   C       -4.49820         4.48894        -1.49881
   N       -4.52518         3.71859        -0.41283
   S       -5.57346         2.52902        -0.64384
   N       -6.02380         2.89348        -2.13928
   C       -6.28918         4.09550        -4.82407
   C       -7.49863         3.35288        -4.70727
   C       -7.90263         3.06157        -6.02828
   C       -6.94010         3.69817        -6.87027
   N       -6.00112         4.29640        -6.13921
   O       -6.97383         3.69969        -8.17976
   C       -5.97193         4.45637        -8.83953
   C       -9.13135         2.35663        -5.94103
   N       -9.46393         2.21290        -4.63666
   C       -8.53286         2.80190        -3.88444
   O       -8.62715         2.89151        -2.58070
   C       -9.71216         2.19688        -1.97421
   C       -9.87566         1.89806        -7.04840
   C      -11.05215         1.20398        -7.07055
   C      -11.67304         0.69876        -8.28362
   C      -11.37994         1.06372        -9.57344
   C      -12.03792         0.54067       -10.70663
   N      -12.52784         0.15653       -11.67159
   C      -10.43051         2.02721        -9.97592
   N       -9.70084         2.80096       -10.41045
   C      -12.71902        -0.23980        -7.89455
   C      -12.83638        -0.22025        -6.47697
   C      -11.86232         0.73545        -5.90677
   O      -11.79531         1.06439        -4.74652
   C      -13.74798        -0.99247        -5.81798
   C      -14.59418        -1.84634        -6.56075
   C      -14.47420        -1.88168        -7.97982
   C      -13.52502        -1.06437        -8.63499
   C      -15.31903        -2.74140        -8.71138
   C      -16.24042        -3.52666        -8.07409
   C      -16.35943        -3.48908        -6.67673
   C      -15.55377        -2.66709        -5.93646
   H        3.76418         4.64918         1.77125
   H        3.99689         7.30270         5.98598
   H        6.34024         6.73676         6.21172
   H        8.35486         5.58759         5.38398
   H        8.27057         4.27966         3.29852
   H        6.16850         4.10787         2.02562
   H       -1.30872         7.02786         4.53407
   H       -5.02565         4.27979         3.58524
   H       -6.54433         4.85820         2.83179
   H       -5.41578         6.00834         3.62076
   H        1.77049         8.34333        -0.97045
   H        0.18047         8.21437        -1.80196
   H        1.23902         6.79522        -1.69532
   H       -3.86741         7.77469        -6.42488
   H       -2.22014         8.56809        -4.65508
   H       -6.23633         4.44674        -9.89458
   H       -4.99177         4.00126        -8.68261
   H       -5.94886         5.47549        -8.44999
   H      -10.04717         2.80369        -1.13426
   H       -9.35646         1.22965        -1.61309
   H      -10.51223         2.04086        -2.69962
   H       -9.39849         2.11637        -7.99631
   H      -13.82142        -0.95416        -4.74115
   H      -13.45742        -1.11708        -9.70990
   H      -15.22480        -2.76526        -9.78718
   H      -16.88351        -4.18112        -8.64330
   H      -17.09261        -4.11491        -6.19005
   H      -15.64076        -2.63410        -4.86017
*
