# ORCA input file
# SCF done       -153.653528666140          0.000662189299
! CAM-B3LYP def2-SVP def2/J RIJCOSX Grid4 TightSCF
%maxcore 5000
%tddft
    Mode sTDDFT
    Ethresh 5.0
    maxcore 5000
end

%pal
  nprocs 6
  end
* xyz 0 1
   C        8.78779        -5.11794         6.07783
   O        9.39660        -4.58141         7.12964
   C        9.82687        -3.34488         6.76932
   C        9.50514        -3.10447         5.45786
   C        8.81366        -4.26202         5.00257
   C        8.19331        -4.53585         3.69994
   O        7.50063        -5.51320         3.52493
   C        8.46542        -3.52339         2.61804
   C       10.48852        -2.56935         7.78448
   O       10.88232        -3.24599         8.89928
   C       11.39129        -2.39792         9.76128
   C       11.38029        -1.12234         9.23610
   N       11.76485         0.05079         9.89002
   O       12.06148        -0.01589        11.06678
   O       11.76942         1.09339         9.24207
   C       10.78133        -1.21983         7.93234
   N       10.62113        -0.15003         7.10424
   C        9.53166         0.09880         6.29730
   C        9.45183         1.19164         5.52667
   C       10.60293         2.15054         5.43676
   C        8.14608         1.54285         4.84667
   N        7.09285         1.76078         5.82935
   C        7.27910         2.57209         6.89306
   C        8.10617         3.65801         6.91901
   C        8.55855         4.30087         8.08669
   C        8.67254         3.72402         9.32898
   C        9.33078         4.26379        10.46027
   C        9.52406         3.37761        11.47996
   C        8.99642         2.09548        11.22336
   S        8.22695         2.05438         9.66385
   C        9.05517         0.93210        11.97543
   C        9.84621         0.61188        13.09242
   C        9.80726        -0.71782        13.40171
   C        8.99889        -1.50517        12.54420
   S        8.22875        -0.49150        11.37873
   C        8.82829        -2.88140        12.71220
   C        8.13974        -3.85493        12.01162
   C        7.53564        -3.87461        10.75095
   C        6.68104        -4.93405        10.26940
   C        6.22192        -6.02892        10.96404
   C        5.39709        -7.02401        10.40433
   N        4.72915        -7.87073        10.00768
   C        6.47044        -6.32040        12.31993
   N        6.60100        -6.64301        13.41562
   C        6.31578        -4.62394         8.88385
   C        6.87575        -3.36700         8.55810
   C        7.73364        -2.93407         9.67506
   O        8.55569        -2.01759         9.60567
   C        6.68248        -2.75953         7.34552
   C        5.93913        -3.44721         6.37949
   C        5.42517        -4.72445         6.69287
   C        5.58587        -5.32018         7.94166
   S        4.60210        -5.43049         5.33389
   C        4.94807        -4.01886         4.38438
   C        5.64094        -3.06082         5.04572
  Br        4.38774        -3.92381         2.60198
   H        8.37822        -6.10391         6.17515
   H        9.74136        -2.22623         4.89483
   H        9.53426        -3.48521         2.41832
   H        8.14419        -2.53596         2.94088
   H        7.93376        -3.80173         1.71207
   H       11.74473        -2.75969        10.70684
   H       11.11069         0.67950         7.43644
   H        8.73642        -0.62848         6.35433
   H       11.52591         1.61407         5.22147
   H       10.74007         2.68691         6.37757
   H       10.44311         2.88093         4.64863
   H        7.81106         0.74330         4.18203
   H        8.26990         2.44813         4.24709
   H        6.45316         0.99503         5.96804
   H        6.66783         2.34602         7.75595
   H        8.49168         4.03947         5.98462
   H        8.99764         5.28381         7.97401
   H        9.68029         5.28152        10.47040
   H       10.04940         3.60091        12.39074
   H       10.46177         1.33618        13.59339
   H       10.36874        -1.16415        14.20323
   H        9.30893        -3.24554        13.61475
   H        8.07054        -4.79365        12.54780
   H        7.10135        -1.78558         7.14381
   H        5.16095        -6.29120         8.13297
   H        5.93491        -2.12525         4.60473
*
