# ORCA input file
# SCF done       -183.697523174236          0.000935877858
! CAM-B3LYP def2-SVP def2/J RIJCOSX Grid4 TightSCF
%maxcore 5000
%tddft
    Mode sTDDFT
    Ethresh 5.0
    maxcore 5000
end

%pal
  nprocs 6
  end
* xyz 0 1
   C       -9.55439         4.46588         1.55025
   C      -10.50407         4.70968         0.59814
   C      -11.78137         5.24302         0.87806
   N      -12.83134         5.67655         1.04147
   C      -10.37413         4.46248        -0.78660
   N      -10.35959         4.31446        -1.92492
   C       -9.71200         4.68547         2.98186
   C       -8.55566         4.21118         3.64998
   C       -8.41119         4.26701         5.01619
   C       -9.45610         4.82186         5.76077
   C      -10.60505         5.30129         5.08499
   C      -10.75196         5.24141         3.70498
   S      -11.77045         5.95698         6.19299
   C      -10.71576         5.58320         7.53075
   C       -9.54997         4.99626         7.16850
  Br      -11.25342         6.00152         9.27703
   C       -7.60166         3.67881         2.66430
   O       -6.50183         3.22049         2.89842
   C       -8.24515         3.85974         1.34044
   C       -7.69103         3.58698         0.13190
   C       -6.47283         2.92031        -0.17995
   C       -5.77510         1.87230         0.39870
   C       -4.53355         1.60748        -0.28269
   C       -3.55380         0.65405        -0.00522
   C       -2.42551         0.58119        -0.80873
   C       -2.24981         1.44246        -1.90510
   C       -3.21290         2.37712        -2.20250
   C       -4.34425         2.45062        -1.39758
   S       -5.67189         3.53652        -1.61274
   C       -1.43330        -0.38362        -0.51382
   N       -0.63415        -1.16773        -0.26917
   C       -6.24039         1.05586         1.48528
   O       -5.31554         0.39497         2.22561
   C       -7.49320         0.70557         1.95430
   C       -8.93725         0.89186         1.79527
   O       -9.58078         1.55774         1.02111
   N       -9.49426         0.10998         2.80195
   C       -8.57771        -0.57068         3.59830
   O       -8.86531        -1.28780         4.52583
   C       -7.28641        -0.18764         3.04092
   C       -5.92198        -0.35165         3.17903
   C       -5.13710        -1.12833         4.07532
   C       -5.69940        -1.89379         5.03676
   C       -4.94409        -2.69719         5.94469
   C       -5.45467        -3.46086         6.92733
   C       -6.90985        -3.59468         7.23842
   C       -4.52728        -4.24003         7.82913
   N       -4.99337        -5.58200         8.07090
   C       -4.22180        -6.66815         8.04889
   C       -4.66232        -7.91430         8.40172
   C       -3.91206        -9.09643         8.38073
   C       -2.56128        -9.34320         8.28437
   C       -1.36857        -8.56450         8.47480
   C       -1.21210        -7.42681         9.23732
   C        0.01396        -6.76313         9.43218
   N        0.97264        -6.15631         9.61383
   C       -2.24341        -6.81129         9.96197
   N       -3.05931        -6.25884        10.55530
   C       -0.24857        -9.32807         7.91980
   C       -0.70581       -10.62564         7.58685
   C       -2.15507       -10.70562         7.86461
   O       -2.87363       -11.67498         7.74415
   C        0.12195       -11.59473         7.07784
   C        1.46643       -11.26283         6.87466
   C        1.91011        -9.95892         7.19335
   C        1.07261        -8.98080         7.71797
   S        3.60276        -9.75845         6.85208
   C        3.69007       -11.40959         6.29885
   C        2.51425       -12.07723         6.36308
  Br        5.32616       -12.09544         5.68774
   H       -7.51819         3.89501         5.49383
   H      -11.64522         5.62192         3.23895
   H       -8.78609         4.69989         7.86387
   H       -8.19767         3.97652        -0.74315
   H       -3.65717        -0.02019         0.82842
   H       -1.35890         1.35828        -2.50817
   H       -3.10391         3.04293        -3.04364
   H      -10.49314         0.03183         2.93125
   H       -4.06521        -1.07541         3.94714
   H       -6.77586        -1.90613         5.11321
   H       -3.86920        -2.67170         5.81374
   H       -7.49863        -2.80208         6.78940
   H       -7.06838        -3.57464         8.31596
   H       -7.28707        -4.54418         6.85598
   H       -4.44718        -3.71014         8.79135
   H       -3.52619        -4.29095         7.39668
   H       -5.89800        -5.66869         8.51250
   H       -3.23145        -6.53037         7.63688
   H       -5.70364        -8.01447         8.67893
   H       -4.49819       -10.01196         8.38397
   H       -0.25335       -12.57851         6.84364
   H        1.45890        -8.00010         7.94069
   H        2.38809       -13.10144         6.06289
*
