# ORCA input file
# SCF done       -184.143921363749          0.000978860305
! CAM-B3LYP def2-SVP def2/J RIJCOSX Grid4 TightSCF
%maxcore 5000
%tddft
    Mode sTDDFT
    Ethresh 5.0
    maxcore 5000
end

%pal
  nprocs 6
  end
* xyz 0 1
   C       -3.05384         5.56346         9.15948
   C       -1.88401         6.22404         9.44038
   C       -1.81780         7.58634         9.80011
   N       -1.69680         8.68778        10.10078
   C       -0.58644         5.67565         9.36787
   N        0.50495         5.32188         9.30454
   C       -4.37227         6.18209         9.11151
   C       -5.29879         5.21776         8.64435
   C       -6.63570         5.48858         8.47779
   C       -7.08223         6.77642         8.79168
   C       -6.15102         7.73359         9.26106
   C       -4.79794         7.45836         9.42595
   S       -6.91464         9.25646         9.59538
   C       -8.45381         8.59798         9.10630
   C       -8.39984         7.30301         8.71211
  Br       -9.98398         9.68082         9.15974
   C       -4.59791         3.95141         8.40443
   O       -5.13636         2.91532         8.02037
   C       -3.20065         4.16787         8.77352
   C       -2.18822         3.24584         8.92406
   C       -1.98788         1.91114         8.54340
   O       -0.89008         1.32848         9.13795
   C       -0.72121         0.12458         8.64969
   C       -1.68284        -0.16880         7.70456
   N       -1.82374        -1.45759         7.14500
   O       -0.88090        -2.21420         7.26740
   O       -2.88011        -1.75822         6.61487
   C       -2.52162         0.99686         7.60019
   N       -3.52692         1.24017         6.75176
   C       -3.75853         0.58418         5.56584
   C       -4.91218         0.59319         4.88754
   C       -6.18266         1.24247         5.33336
   C       -5.00216        -0.17476         3.59007
   N       -5.77398        -1.38913         3.75871
   C       -5.40793        -2.37723         4.58379
   C       -6.15839        -3.49580         4.81239
   C       -5.73742        -4.52484         5.66023
   C       -6.46091        -5.66753         5.91166
   C       -6.10210        -6.75605         6.73380
   C       -7.03067        -7.75695         6.77677
   C       -8.17503        -7.50487         5.99330
   S       -8.04155        -5.96596         5.19379
   C       -9.29672        -8.30897         5.82834
   C       -9.54661        -9.58087         6.36848
   C      -10.76045       -10.10214         6.00749
   C      -11.52011        -9.26353         5.17064
   S      -10.65068        -7.78631         4.84969
   C      -12.79023        -9.51565         4.67035
   C      -13.46934        -8.63531         3.84710
   C      -14.74485        -8.75335         3.32092
   C      -15.10520        -7.94866         2.13774
   O      -14.47005        -7.03306         1.65269
   C      -16.37692        -8.51853         1.64464
   C      -17.09349        -8.19183         0.53198
   C      -18.27711        -8.90800         0.23862
   C      -18.68872        -9.95681         1.10963
   C      -19.86283       -10.67304         0.80814
   C      -20.58185       -10.34491        -0.30731
   C      -20.19582        -9.31539        -1.17442
   C      -19.05640        -8.61145        -0.89713
   F      -21.70705       -11.02952        -0.59676
   C      -17.92830       -10.26636         2.26338
   C      -16.79309        -9.55297         2.53039
   C      -15.83969        -9.61843         3.64198
   C      -16.08753       -10.24739         4.84428
   C      -15.33359       -10.05538         6.01647
   N      -14.79439        -9.90268         7.02027
   C      -17.20101       -11.07278         5.08399
   N      -18.07460       -11.77743         5.33360
   H       -7.31665         4.73214         8.12023
   H       -4.13161         8.22137         9.79119
   H       -9.25403         6.74140         8.38065
   H       -1.32795         3.59830         9.48276
   H        0.07883        -0.48619         9.02364
   H       -4.23185         1.91145         7.09926
   H       -2.90045         0.07664         5.14880
   H       -6.09468         1.70581         6.31012
   H       -6.97964         0.49984         5.37935
   H       -6.48285         2.00485         4.61302
   H       -3.99853        -0.43615         3.23959
   H       -5.49128         0.43054         2.82420
   H       -6.68232        -1.44763         3.32358
   H       -4.45821        -2.24813         5.08404
   H       -7.11538        -3.60678         4.31827
   H       -4.77930        -4.41831         6.15101
   H       -5.16844        -6.77058         7.26810
   H       -6.92266        -8.65906         7.35117
   H       -8.83810       -10.08464         7.00132
   H      -11.13161       -11.05886         6.32855
   H      -13.23268       -10.46262         4.94135
   H      -12.91849        -7.77104         3.48519
   H      -16.76294        -7.39700        -0.12007
   H      -20.19233       -11.47062         1.45569
   H      -20.80325        -9.10043        -2.03933
   H      -18.73740        -7.81314        -1.55064
   H      -18.26480       -11.06754         2.90191
*
