# ORCA input file
# SCF done       -179.680070716102          0.000673609815
! CAM-B3LYP def2-SVP def2/J RIJCOSX Grid4 TightSCF
%maxcore 5000
%tddft
    Mode sTDDFT
    Ethresh 5.0
    maxcore 5000
end

%pal
  nprocs 6
  end
* xyz 0 1
   C       -6.07160         0.84134         6.97535
   C       -5.79731        -0.40686         6.45594
   C       -4.67059        -1.17556         6.80171
   N       -3.77287        -1.85632         7.03218
   C       -6.58219        -1.10909         5.52223
   N       -7.15298        -1.76797         4.77122
   C       -5.25008         1.52894         7.97252
   C       -5.85583         2.77158         8.27633
   C       -5.32549         3.65249         9.18439
   C       -4.13541         3.29053         9.82719
   C       -3.53837         2.04848         9.51780
   C       -4.07672         1.15568         8.59748
   S       -2.07515         1.79899        10.42440
   C       -2.28644         3.34810        11.19583
   C       -3.39219         4.01872        10.79738
  Br       -1.02430         3.93463        12.45555
   C       -7.09134         2.91735         7.47198
   O       -7.85053         3.86887         7.49350
   C       -7.18519         1.69174         6.66646
   C       -8.19062         1.42604         5.75031
   C       -9.26694         2.24949         5.46580
   C      -10.23214         1.90249         4.53044
   C      -11.38123         2.63007         4.16520
   C      -12.15522         2.01670         3.21514
   C      -11.64449         0.78038         2.78839
   S      -10.15194         0.41263         3.62346
   C      -12.14867        -0.11414         1.85280
   C      -13.34194        -0.06198         1.10683
   C      -13.51559        -1.13590         0.28136
   C      -12.47681        -2.09691         0.33689
   S      -11.25757        -1.56093         1.47642
   C      -12.39257        -3.21017        -0.46945
   C      -11.43921        -4.23884        -0.52056
   S      -11.28616        -5.06405        -2.06056
   C       -9.98761        -6.06262        -1.47581
   C       -9.73089        -5.79089        -0.12731
   C      -10.55083        -4.79303         0.40862
   C      -10.54346        -4.49036         1.87116
   C       -9.98066        -5.66884         2.65954
   C       -8.58882        -5.99624         2.12968
   C       -7.87506        -7.02891         2.99731
   C       -8.70263        -6.51008         0.69120
   C       -9.40541        -6.95973        -2.40325
   C       -8.37270        -7.81277        -2.17474
   C       -7.78863        -8.67352        -3.12998
   S       -8.34193        -8.74187        -4.77969
   C       -7.11037        -9.87200        -5.16995
   C       -6.29850       -10.18476        -4.12384
   C       -5.18720       -11.17405        -4.24457
   C       -6.67812        -9.50428        -2.92734
   C       -6.06842        -9.62050        -1.63410
   C       -4.79240        -9.93850        -1.32311
   C       -4.34562        -9.92626         0.03029
   C       -3.07141       -10.16694         0.40464
   C       -2.57695       -10.10207         1.75437
   C       -1.26833       -10.51328         2.03189
   O       -0.58443       -10.99853         0.96092
   C        0.82608       -10.98152         0.90057
   C       -0.73639       -10.47370         3.36349
   O        0.52601       -10.96581         3.52507
   C        1.09593       -10.95284         4.81196
   C       -1.48253        -9.98458         4.40653
   C       -2.78731        -9.54020         4.15719
   C       -3.35182        -9.60583         2.83738
   N       -4.59708        -9.13398         2.81549
   S       -5.00667        -8.66180         4.30480
   N       -3.63317        -9.03447         5.05188
   H       -5.81158         4.59230         9.39482
   H       -3.58125         0.22049         8.39772
   H       -3.67475         4.98647        11.16992
   H       -8.13747         0.49159         5.20426
   H       -9.37053         3.19031         5.98564
   H      -11.60854         3.58104         4.61311
   H      -13.06738         2.42722         2.81983
   H      -14.03711         0.75311         1.19694
   H      -14.36524        -1.26991        -0.36511
   H      -13.14312        -3.25525        -1.25161
   H      -11.55558        -4.25052         2.20252
   H       -9.91220        -3.61984         2.06708
   H      -10.63192        -6.53978         2.55449
   H       -9.92907        -5.40471         3.71598
   H       -7.99949        -5.07371         2.13221
   H       -8.46981        -7.93686         3.07903
   H       -7.71206        -6.63469         3.99700
   H       -6.90908        -7.28828         2.56958
   H       -8.96564        -7.57345         0.71712
   H       -7.72594        -6.41413         0.20973
   H       -9.83687        -6.93743        -3.39713
   H       -7.92250        -7.84909        -1.19980
   H       -7.05717       -10.25570        -6.17034
   H       -5.32100       -11.77747        -5.13959
   H       -5.16388       -11.82725        -3.37472
   H       -4.22671       -10.66487        -4.32118
   H       -6.71334        -9.37864        -0.79856
   H       -4.05955       -10.15320        -2.08541
   H       -5.07620        -9.68481         0.78854
   H       -2.33685       -10.43392        -0.34233
   H        1.26602       -11.80632         1.46396
   H        1.23611       -10.03613         1.26080
   H        1.06414       -11.09891        -0.15747
   H        1.18621        -9.93411         5.20063
   H        2.08887       -11.38372         4.69276
   H        0.51727       -11.56166         5.51295
   H       -1.11072        -9.93806         5.41488
*
