# ORCA input file
# SCF done       -217.120714716139          0.000723954358
! CAM-B3LYP def2-SVP def2/J RIJCOSX Grid4 TightSCF
%maxcore 5000
%tddft
    Mode sTDDFT
    Ethresh 5.0
    maxcore 5000
end

%pal
  nprocs 6
  end
* xyz 0 1
   C       -7.81833        -1.65907         0.07496
   C       -6.99016        -2.74918         0.10679
   C       -7.43623        -4.08751         0.08222
   N       -7.73692        -5.19502         0.05888
   C       -5.58207        -2.68865         0.16192
   N       -4.43531        -2.71103         0.21811
   C       -9.27400        -1.69109         0.06378
   C       -9.76985        -0.36300         0.03324
   C      -11.11193        -0.07172         0.04542
   C      -12.01139        -1.14172         0.09027
   C      -11.50879        -2.46569         0.10904
   C      -10.15237        -2.76055         0.09697
   S      -12.79254        -3.63600         0.15550
   C      -13.96968        -2.34976         0.15201
   C      -13.43196        -1.10709         0.11760
  Br      -15.79664        -2.76917         0.19009
   C       -8.63829         0.58114        -0.01812
   O       -8.68627         1.76807        -0.24229
   C       -7.41180        -0.26086         0.10040
   C       -6.16660         0.26213         0.14269
   C       -5.92703         1.68675         0.32232
   C       -5.25853         2.40025        -0.68028
   C       -5.08953         3.76669        -0.61196
   C       -5.55044         4.48329         0.48904
   C       -6.15184         3.79235         1.51380
   C       -6.34235         2.40417         1.44547
   N       -6.86197         1.94977         2.64494
   C       -7.13903         0.59543         3.02704
   C       -7.06028         2.98178         3.53029
   O       -7.44358         2.85388         4.66592
   C       -6.69789         4.27978         2.81938
   C       -7.98179         5.11957         2.64678
   C       -8.96149         4.35820         1.74704
   O       -9.46659         3.28394         1.97325
   N       -9.16149         5.10922         0.62517
   C       -9.95979         4.67399        -0.48723
   C       -8.47133         6.31017         0.68460
   C       -8.43967         7.33526        -0.23402
   C       -7.67780         8.48104         0.05271
   C       -6.96445         8.53945         1.25733
   C       -6.99959         7.50058         2.17268
   C       -7.75869         6.38604         1.88886
   C       -7.68026         9.55445        -0.90801
   C       -7.11357        10.77530        -0.76164
   C       -7.18062        11.80879        -1.72212
   S       -7.99306        11.60572        -3.24340
   C       -7.67231        13.23942        -3.75645
   C       -6.94072        13.92185        -2.75976
   C       -6.66146        13.11018        -1.61855
   C       -5.93169        13.64704        -0.54109
   C       -5.50462        14.94116        -0.61369
   F       -4.80127        15.47266         0.40257
   C       -5.78284        15.74053        -1.74164
   F       -5.33226        17.00880        -1.75832
   C       -6.48859        15.25050        -2.80463
   C       -8.11925        13.73156        -4.98458
   C       -8.75904        12.95591        -5.92485
   C       -9.26498        13.35200        -7.16130
   C       -9.38168        14.61466        -7.71495
   C       -9.88171        14.86669        -9.01127
   C       -9.93268        16.18675        -9.35640
   C       -9.48702        17.05495        -8.34306
   S       -8.98786        16.13589        -6.93868
   C       -9.39727        18.43653        -8.39070
   C       -9.58764        19.27417        -9.50980
   C       -9.33204        20.58863        -9.26098
   C       -8.91986        20.86239        -7.93277
   S       -8.95121        19.38532        -6.99340
   C       -8.62333        22.10950        -7.44216
   C       -8.12957        22.48430        -6.18110
   S       -8.56141        24.10692        -5.64080
   C       -7.78020        23.90672        -4.12420
   C       -7.18817        22.68804        -4.04492
   C       -7.34800        21.85897        -5.20886
   C       -6.56523        20.68975        -5.06244
   C       -5.90558        20.61087        -3.83510
   S       -6.20356        21.97613        -2.78981
   C       -5.11212        19.47413        -3.67343
   C       -5.13701        18.67022        -4.78766
   S       -6.13347        19.34560        -6.05661
   C       -4.49106        17.39872        -4.94627
   C       -4.69172        16.56719        -5.96639
   H      -11.45558         0.95041         0.03696
   H       -9.81978        -3.78489         0.11569
   H      -14.01162        -0.20221         0.11234
   H       -5.29513        -0.36340        -0.00248
   H       -4.91072         1.85792        -1.54697
   H       -4.59708         4.28527        -1.41982
   H       -5.42257         5.55348         0.54343
   H       -6.30655        -0.05790         2.75844
   H       -8.05621         0.23369         2.55475
   H       -7.27900         0.59483         4.10900
   H       -5.97426         4.85378         3.40369
   H       -8.42100         5.27528         3.63691
   H      -10.18328         3.62077        -0.32909
   H       -9.39634         4.78160        -1.41461
   H      -10.88660         5.24922        -0.55231
   H       -8.99487         7.27725        -1.15741
   H       -6.36874         9.40896         1.48322
   H       -6.44266         7.56813         3.09534
   H       -8.21728         9.35658        -1.82800
   H       -6.58199        11.02113         0.14576
   H       -5.70343        13.06033         0.33312
   H       -6.68118        15.88340        -3.65538
   H       -7.92087        14.77261        -5.18947
   H       -8.86726        11.90328        -5.69035
   H       -9.64069        12.55714        -7.79449
   H      -10.18647        14.06206        -9.65732
   H      -10.29044        16.55052       -10.30256
   H       -9.88120        18.88620       -10.46839
   H       -9.39951        21.37161        -9.99537
   H       -8.87473        22.93719        -8.09547
   H       -7.79960        24.69193        -3.39663
   H       -4.56527        19.23913        -2.78001
   H       -3.82170        17.13015        -4.13962
   H       -5.36564        16.81638        -6.76994
   H       -4.19115        15.61748        -6.02897
*
