# ORCA input file
# SCF done       -195.069138027364          0.000567277852
! CAM-B3LYP def2-SVP def2/J RIJCOSX Grid4 TightSCF
%maxcore 5000
%tddft
    Mode sTDDFT
    Ethresh 5.0
    maxcore 5000
end

%pal
  nprocs 6
  end
* xyz 0 1
   C      -13.31233       -10.51028        -6.87245
   C      -12.15368       -10.40151        -6.13886
   C      -11.07710       -11.30679        -6.22409
   N      -10.16523       -12.00500        -6.24748
   C      -11.85811        -9.38523        -5.20820
   N      -11.53344        -8.59692        -4.43737
   C      -13.59492       -11.56305        -7.84597
   C      -14.87126       -11.32766        -8.41296
   C      -15.42181       -12.14905        -9.36534
   C      -14.67783       -13.25969        -9.77927
   C      -13.40489       -13.48726        -9.20695
   C      -12.84735       -12.65482        -8.24356
   S      -12.65649       -14.91428        -9.85812
   C      -14.04625       -15.18173       -10.87645
   C      -15.02087       -14.25218       -10.73816
  Br      -14.07876       -16.66346       -12.02664
   C      -15.45384       -10.10895        -7.81239
   O      -16.53598        -9.62211        -8.07609
   C      -14.45211        -9.62787        -6.84045
   C      -14.61081        -8.52429        -6.03029
   C      -15.72196        -7.68428        -6.00947
   C      -15.81297        -6.61030        -5.14658
   C      -16.88618        -5.69538        -5.02586
   C      -16.70153        -4.74089        -4.06981
   C      -15.47023        -4.85562        -3.38701
   S      -14.55115        -6.21009        -4.00380
   C      -14.97236        -4.07927        -2.35798
   C      -15.56778        -2.96975        -1.71075
   C      -14.80981        -2.44926        -0.71109
   C      -13.56347        -3.11092        -0.50200
   S      -13.40954        -4.42142        -1.66345
   C      -12.67547        -2.79954         0.48763
   C      -11.41996        -3.40743         0.80253
   C      -10.83172        -3.12406         2.04477
   C       -9.64560        -3.71388         2.43255
   N       -9.24833        -3.48009         3.80100
   O       -9.35272        -2.34790         4.22194
   O       -8.89407        -4.43547         4.45551
   C       -8.93158        -4.57431         1.57650
   C       -9.53334        -4.85142         0.33744
   C      -10.73050        -4.29748        -0.04020
   C       -7.63545        -5.14677         1.82437
   C       -6.66351        -4.69539         2.64486
   C       -5.41381        -5.37252         2.73785
   O       -4.48712        -4.96175         3.64437
   C       -4.89614        -6.45593         2.05530
   C       -5.15814        -7.43421         0.99750
   O       -6.11736        -7.58909         0.28352
   N       -4.00203        -8.20550         0.96475
   C       -3.01563        -7.83725         1.87808
   O       -1.94438        -8.37784         1.99324
   C       -3.60284        -6.69993         2.58451
   C       -3.38965        -5.75752         3.57208
   C       -2.30306        -5.54553         4.47088
   C       -1.18550        -6.29434         4.43244
   C       -0.05159        -6.11878         5.32153
   C        1.17603        -5.91598         4.76180
   S        2.41229        -5.51457         5.88035
   C        1.28031        -5.68515         7.18725
   C       -0.00936        -6.04569         6.76416
   C       -0.97613        -6.39509         7.74331
   C       -2.26336        -7.04093         7.29844
   C       -2.00567        -8.46549         6.80269
   C       -0.68066        -6.25208         9.09210
   C       -1.67226        -6.64894        10.15585
   C       -2.69900        -5.54240        10.40988
   C        0.57762        -5.74775         9.50262
   C        1.10555        -5.50284        10.82301
   C        2.42085        -5.16160        10.78827
   S        3.10120        -5.07811         9.20875
   C        1.56741        -5.52560         8.53221
   C        0.39233        -5.52590        12.09952
   C        0.87820        -6.08506        13.19870
   H      -16.39686       -11.94308        -9.77837
   H      -11.87363       -12.87322        -7.83857
   H      -15.94404       -14.26410       -11.28825
   H      -13.81237        -8.28182        -5.33961
   H      -16.54404        -7.87744        -6.68309
   H      -17.75961        -5.77515        -5.64830
   H      -17.41181        -3.96709        -3.83945
   H      -16.53503        -2.59749        -1.99658
   H      -15.09949        -1.60957        -0.10430
   H      -12.98301        -2.00242         1.15379
   H      -11.33106        -2.46577         2.74154
   H       -9.01818        -5.51440        -0.34069
   H      -11.12563        -4.53731        -1.01298
   H       -7.41114        -6.01142         1.21248
   H       -6.75841        -3.81469         3.26205
   H       -3.88439        -8.97574         0.32185
   H       -2.42551        -4.74253         5.18475
   H       -1.06724        -7.02374         3.64103
   H        1.40287        -5.92239         3.71311
   H       -2.72055        -6.46628         6.49690
   H       -2.98256        -7.07683         8.11177
   H       -2.94416        -8.94086         6.52658
   H       -1.53129        -9.05885         7.58163
   H       -1.35539        -8.46156         5.93177
   H       -1.13380        -6.86369        11.07871
   H       -2.18618        -7.56772         9.87202
   H       -2.20183        -4.60944        10.66625
   H       -3.36004        -5.82095        11.22772
   H       -3.30293        -5.36000         9.52420
   H        3.03768        -4.91073        11.62920
   H       -0.55341        -5.00279        12.13069
   H        1.81310        -6.62028        13.19657
   H        0.34819        -6.04653        14.13485
*
