# ORCA input file
# SCF done       -258.265666570182          0.000634457770
! CAM-B3LYP def2-SVP def2/J RIJCOSX Grid4 TightSCF
%maxcore 5000
%tddft
    Mode sTDDFT
    Ethresh 5.0
    maxcore 5000
end

%pal
  nprocs 6
  end
* xyz 0 1
   C       -3.63679         0.85860         3.02839
   C       -3.13418         1.10675         1.81278
   C       -2.95708         2.38478         1.18050
   C       -2.42095         2.32791        -0.05585
   C       -2.12718         1.00800        -0.50994
   S       -2.56895        -0.16582         0.71824
   C       -1.57912         0.64202        -1.70924
   C       -1.18063         1.49146        -2.78077
   C       -0.66753         0.84011        -3.84738
   C       -0.61934        -0.58357        -3.70440
   S       -1.26495        -1.03854        -2.11822
   C       -0.12684        -1.47718        -4.58770
   C       -0.07060        -2.91434        -4.33495
   C        1.18330        -3.53302        -4.27351
   C        1.33427        -4.85152        -3.89644
   C        0.22324        -5.62745        -3.58750
   C       -1.02384        -5.06077        -3.71336
   C       -1.18046        -3.72003        -4.08791
   N       -2.53542        -3.43015        -4.20565
   C       -3.12096        -2.23881        -4.75988
   C       -3.30860        -4.52115        -3.91186
   O       -4.51567        -4.54691        -3.97346
   C       -2.37884        -5.68071        -3.57479
   C       -2.60987        -6.81731        -4.59516
   C       -1.73526        -8.02014        -4.24720
   O       -1.76881        -8.68707        -3.24069
   N       -0.85836        -8.20882        -5.28165
   C        0.15217        -9.23073        -5.28555
   C       -1.05608        -7.28304        -6.29539
   C       -0.35992        -7.14044        -7.47450
   C       -0.74710        -6.12231        -8.35856
   C       -1.83573        -5.30677        -8.02683
   C       -2.52717        -5.45770        -6.83546
   C       -2.12709        -6.44405        -5.96118
   C       -0.08113        -5.87550        -9.61810
   C        1.05492        -6.46695       -10.03379
   C        1.74286        -6.30782       -11.27704
   S        3.12796        -7.36579       -11.42512
   C        3.45513        -6.85138       -13.04191
   C        2.55487        -5.89048       -13.43728
   C        1.57658        -5.56493       -12.44169
   C        0.58944        -4.51415       -12.69768
   O       -0.17940        -4.07001       -11.85891
   C        0.57669        -3.96720       -14.07280
   C       -0.40035        -3.02571       -14.39259
   C       -0.46724        -2.47362       -15.65554
   C        0.44481        -2.84012       -16.64194
   C        0.34774        -2.27794       -18.02846
   C       -0.52536        -3.18109       -18.90318
   C        1.41860        -3.77579       -16.32615
   C        1.49556        -4.34192       -15.05833
   C        2.56703        -5.32314       -14.79102
   O        3.37938        -5.64125       -15.63940
   C        4.63922        -7.35813       -13.72795
   C        5.67601        -6.46634       -14.02402
   C        6.87414        -6.89520       -14.55457
   C        7.09944        -8.24632       -14.79247
   C        6.08737        -9.13606       -14.52213
   C        4.85508        -8.70184       -14.01705
   N        3.99634        -9.78939       -13.89571
   C        2.58137        -9.74589       -13.64025
   C        4.60771       -10.95138       -14.27032
   O        4.07106       -12.03637       -14.30016
   C        6.04593       -10.62455       -14.66569
   C        6.30781       -11.14787       -16.09261
   C        5.11281       -10.78219       -16.97941
   O        4.70694        -9.67438       -17.23615
   N        4.54839       -11.94788       -17.41661
   C        3.34892       -11.99633       -18.20731
   C        5.21772       -13.05568       -16.92503
   C        4.93148       -14.38955       -17.10501
   C        5.75367       -15.34469       -16.48254
   C        6.85025       -14.91811       -15.72072
   C        7.12816       -13.57272       -15.54966
   C        6.30790       -12.64084       -16.14809
   C        5.41731       -16.73509       -16.64007
   C        6.02748       -17.78838       -16.04367
   C        5.57792       -19.11379       -16.24949
   C        6.11647       -20.22263       -15.65968
   C        5.67223       -21.59513       -15.82015
   C        4.67326       -22.05097       -16.64171
   C        4.29260       -23.40507       -16.75040
   N        3.93295       -24.48693       -16.88620
   C        3.88576       -21.25720       -17.50144
   N        3.20327       -20.68903       -18.22981
   C        6.49185       -22.43131       -14.94935
   C        7.43805       -21.61203       -14.28708
   C        7.25411       -20.20919       -14.70853
   O        7.91198       -19.25925       -14.33768
   C        8.35676       -22.11000       -13.39564
   C        8.34095       -23.48512       -13.14173
   C        7.39101       -24.29690       -13.80627
   C        6.46327       -23.79305       -14.70903
   S        7.54391       -25.96595       -13.34619
   C        8.86254       -25.55532       -12.28181
   C        9.17501       -24.23775       -12.27044
  Br        9.70396       -26.90494       -11.28787
   H       -3.96669         1.66360         3.66112
   H       -3.72712        -0.14187         3.40969
   H       -3.24285         3.28949         1.68740
   H       -2.22032         3.18765        -0.67053
   H       -1.28893         2.55967        -2.71834
   H       -0.31476         1.31485        -4.74606
   H        0.36028        -1.10770        -5.48054
   H        2.05662        -2.93548        -4.49063
   H        2.32338        -5.27834        -3.83040
   H        0.33557        -6.64983        -3.26220
   H       -2.58325        -1.93959        -5.66040
   H       -3.11375        -1.41564        -4.04494
   H       -4.15680        -2.47694        -5.00501
   H       -2.57733        -6.06881        -2.57217
   H       -3.66966        -7.08685        -4.56682
   H        0.04677        -9.79745        -4.36099
   H        1.14839        -8.78468        -5.32835
   H        0.01954        -9.89998        -6.13780
   H        0.45695        -7.80181        -7.71194
   H       -2.13451        -4.53680        -8.72191
   H       -3.36802        -4.82244        -6.60430
   H       -0.54888        -5.13916       -10.25321
   H        1.54592        -7.18204        -9.38400
   H       -1.10341        -2.74052       -13.62400
   H       -1.23293        -1.74562       -15.88222
   H        1.34381        -2.20686       -18.46863
   H       -0.08776        -1.27749       -17.99468
   H       -0.09979        -4.18036       -18.95677
   H       -0.59540        -2.77832       -19.91051
   H       -1.52813        -3.25688       -18.48842
   H        2.14693        -4.08613       -17.06176
   H        5.52466        -5.41803       -13.81707
   H        7.64762        -6.17550       -14.77234
   H        8.04642        -8.58500       -15.18450
   H        2.13058        -8.90924       -14.17428
   H        2.37095        -9.65814       -12.57215
   H        2.16034       -10.68432       -14.00295
   H        6.74282       -11.11568       -13.97893
   H        7.22674       -10.69826       -16.47718
   H        3.05285       -10.96848       -18.41415
   H        2.55209       -12.50221       -17.65850
   H        3.53132       -12.51964       -19.14789
   H        4.08296       -14.70690       -17.69102
   H        7.48881       -15.64779       -15.25058
   H        7.97178       -13.26367       -14.95055
   H        4.57369       -16.93929       -17.29036
   H        6.86596       -17.64873       -15.38054
   H        4.73418       -19.23711       -16.91628
   H        9.06457       -21.45795       -12.90829
   H        5.76046       -24.45431       -15.18721
   H        9.96050       -23.81240       -11.67292
*
