# ORCA input file
# SCF done       -152.886507140537          0.000666043365
! CAM-B3LYP def2-SVP def2/J RIJCOSX Grid4 TightSCF
%maxcore 5000
%tddft
    Mode sTDDFT
    Ethresh 5.0
    maxcore 5000
end

%pal
  nprocs 6
  end
* xyz 0 1
   C        1.56883        -4.52576         5.09888
   C        2.85692        -4.62324         4.74384
   C        4.01316        -4.29744         5.53057
   C        5.19009        -4.50021         4.90031
   C        5.06459        -5.00153         3.57213
   S        3.37876        -5.20338         3.15370
   C        6.07886        -5.30778         2.69562
   C        7.47607        -5.19538         2.90704
   C        8.22482        -5.58990         1.84432
   C        7.46390        -6.03879         0.73275
   S        5.75494        -5.93043         1.08661
   C        7.95555        -6.51277        -0.45778
   C        7.14357        -6.96202        -1.50790
   O        5.78395        -6.91459        -1.39873
   C        7.45625        -7.51250        -2.74489
   C        8.55464        -7.90392        -3.61898
   O        9.75129        -7.83733        -3.48518
   N        7.90675        -8.42017        -4.74696
   C        6.51918        -8.40327        -4.68936
   O        5.78267        -8.81137        -5.55784
   C        6.23088        -7.80829        -3.38698
   C        5.21167        -7.42303        -2.52630
   C        3.80805        -7.47961        -2.63822
   C        3.19873        -8.01487        -3.73427
   C        1.81086        -8.12249        -3.91779
   C        1.15900        -8.73148        -5.01259
   C       -0.25960        -8.70648        -4.89396
   C       -1.05585        -9.28187        -5.89974
   C       -0.44854        -9.85946        -6.98201
   C        0.95166        -9.88152        -7.10132
   C        1.75299        -9.32932        -6.13811
   C       -0.68130        -8.06403        -3.71200
   S        0.66156        -7.51360        -2.77010
   C       -1.98867        -7.83116        -3.24714
   O       -3.07496        -8.29147        -3.92797
   C       -2.43818        -7.15427        -2.12348
   C       -2.00521        -6.41420        -0.94483
   O       -0.90286        -6.13542        -0.54011
   N       -3.20307        -6.06443        -0.32197
   C       -4.36058        -6.50112        -0.96896
   O       -5.48453        -6.29745        -0.58329
   C       -3.85193        -7.21016        -2.14086
   C       -4.21909        -7.92650        -3.26914
   C       -5.47903        -8.30675        -3.76868
   C       -5.62469        -9.08241        -4.88456
   C       -6.84917        -9.50827        -5.41112
   C       -6.95728       -10.32225        -6.51285
   C       -8.14878       -10.81529        -7.10140
   C       -7.95172       -11.62169        -8.17842
   C       -6.58820       -11.81516        -8.51024
   S       -5.56582       -10.92430        -7.39914
   C       -6.06380       -12.57529        -9.52927
   C       -6.77818       -13.35217       -10.48439
   C       -5.99384       -14.00619       -11.36904
   C       -4.58655       -13.79559       -11.18302
   S       -4.33988       -12.70854        -9.80649
   C       -3.57751       -14.30929       -11.89923
   H        1.29245        -4.16871         6.07539
   H        0.77711        -4.79858         4.42542
   H        3.90696        -3.92577         6.53432
   H        6.15399        -4.31028         5.33797
   H        7.88509        -4.83083         3.83224
   H        9.29988        -5.58051         1.81376
   H        9.02157        -6.56558        -0.61452
   H        8.41342        -8.78108        -5.54228
   H        3.23280        -7.08781        -1.81123
   H        3.82137        -8.40064        -4.53021
   H       -2.12904        -9.26306        -5.80999
   H       -1.05146       -10.30625        -7.75853
   H        1.39664       -10.34293        -7.96999
   H        2.82696        -9.34776        -6.23612
   H       -3.23296        -5.53361         0.53632
   H       -6.33476        -7.96290        -3.20747
   H       -4.72984        -9.40792        -5.40022
   H       -7.76267        -9.19301        -4.92521
   H       -9.11404       -10.55672        -6.70279
   H       -8.74326       -12.08263        -8.74161
   H       -7.85276       -13.39797       -10.47682
   H       -6.35344       -14.64119       -12.15917
   H       -3.77117       -14.96676       -12.72815
   H       -2.55158       -14.08481       -11.67176
*
