# ORCA input file
# SCF done       -228.153045288254          0.000680125155
! CAM-B3LYP def2-SVP def2/J RIJCOSX Grid4 TightSCF
%maxcore 5000
%tddft
    Mode sTDDFT
    Ethresh 5.0
    maxcore 5000
end

%pal
  nprocs 6
  end
* xyz 0 1
   C       -0.06890        -2.94189         5.68829
   C       -1.41518        -2.71214         5.74642
   F       -1.95581        -2.22714         6.87861
   C       -2.26822        -2.96275         4.66264
   C       -1.73742        -3.45528         3.50321
   C       -0.35549        -3.71123         3.38795
   C        0.49503        -3.45151         4.50232
   C        1.88246        -3.71014         4.41497
   C        2.40003        -4.21153         3.25087
   C        1.54731        -4.45356         2.13480
   C        0.20401        -4.21702         2.19364
   C        2.35206        -4.95334         1.00388
   O        1.96626        -5.31206        -0.08465
   C        3.76766        -4.86873         1.46391
   C        3.75804        -4.60863         2.89163
   C        4.75468        -4.91738         3.77798
   C        5.95894        -5.55612         3.41693
   N        6.92328        -6.13839         3.19741
   C        4.65461        -4.71605         5.16992
   N        4.62646        -4.54871         6.30529
   C        4.77458        -4.94731         0.56201
   C        6.15085        -4.55322         0.71411
   C        7.14271        -5.25780         0.01592
   C        8.45701        -4.89579         0.16839
   C        8.80822        -3.79144         0.96580
   C        7.82835        -3.05842         1.62220
   C        6.51246        -3.45293         1.50440
   C       10.24475        -3.63065         0.92032
   C       10.78151        -4.64661         0.10912
   C        9.68580        -5.53227        -0.43345
   C        9.84865        -6.98738         0.04634
   C        9.90710        -7.10975         1.56411
   C        9.64487        -5.49475        -1.97278
   C        9.48385        -4.08411        -2.52699
   C       12.13392        -4.73233        -0.10680
   C       12.99034        -3.78680         0.47809
   C       12.43743        -2.76716         1.26670
   C       11.08011        -2.68628         1.50128
   C       14.41894        -3.81910         0.27759
   C       15.12559        -4.86599        -0.19280
   C       16.53025        -4.87042        -0.41635
   C       17.28709        -5.94985        -0.83139
   C       18.63490        -5.62306        -0.99080
   C       18.90709        -4.27725        -0.69919
   S       17.50932        -3.42228        -0.21601
   C       20.28796        -4.03789        -0.92135
   C       20.88843        -5.23377        -1.34636
   C       19.87044        -6.27201        -1.39872
   C       20.03844        -7.57565        -1.76207
   C       21.29327        -8.09560        -2.14372
   N       22.30991        -8.52408        -2.45581
   C       18.96558        -8.49134        -1.78517
   N       18.09400        -9.23623        -1.80800
   C       22.24919        -5.09436        -1.61988
   C       22.69057        -3.80137        -1.41404
   S       21.39962        -2.74198        -0.85866
   C       23.99624        -3.29211        -1.63063
   C       24.42235        -1.98621        -1.49279
   C       25.76921        -1.84761        -1.83526
   C       26.37497        -3.06428        -2.23248
   S       25.26382        -4.38133        -2.17774
   C       27.69461        -2.77025        -2.55841
   C       27.85757        -1.37392        -2.35457
   N       26.67902        -0.83051        -1.91319
   C       26.47940         0.54613        -1.55480
   C       29.13403        -0.91321        -2.63885
   C       29.97440        -1.94197        -3.05132
   S       29.14217        -3.50046        -3.11538
   C       31.30999        -1.90952        -3.48290
   C       32.25326        -0.91987        -3.41273
   C       33.40273        -0.98834        -4.35473
   O       33.72310        -1.93403        -5.03909
   C       34.02188         0.35065        -4.31399
   C       35.03555         0.85282        -5.07650
   C       35.44264         2.19273        -4.88555
   C       34.78376         2.98840        -3.90401
   C       35.18724         4.32578        -3.72578
   C       36.20042         4.82929        -4.49329
   C       36.86210         4.06272        -5.46168
   C       36.48223         2.76254        -5.64824
   F       36.58633         6.10780        -4.32437
   C       33.74219         2.43670        -3.12083
   C       33.37074         1.13522        -3.31983
   C       32.36705         0.30153        -2.65781
   C       31.83454         0.55989        -1.41762
   C       31.08202        -0.37012        -0.67676
   N       30.47579        -1.09684        -0.02592
   C       32.03406         1.76032        -0.70887
   N       32.12844         2.72926        -0.09928
   H        0.55708        -2.74118         6.54370
   H       -3.32264        -2.76208         4.76737
   H       -2.37421        -3.65641         2.65490
   H        2.50433        -3.49757         5.27026
   H       -0.42511        -4.41458         1.33866
   H        4.48423        -5.30662        -0.42108
   H        6.86068        -6.10138        -0.59658
   H        8.08905        -2.19802         2.21986
   H        5.73664        -2.88286         1.99608
   H       10.76403        -7.39469        -0.38924
   H        9.00966        -7.57458        -0.33221
   H       10.74358        -6.54051         1.96426
   H       10.03624        -8.15203         1.84596
   H        8.99100        -6.74330         2.01942
   H        8.81524        -6.11620        -2.31555
   H       10.56879        -5.93108        -2.35772
   H        8.55882        -3.63430        -2.17285
   H        9.45944        -4.10993        -3.61392
   H       10.31283        -3.45167        -2.21657
   H       12.53597        -5.50760        -0.74054
   H       13.09973        -2.03676         1.70923
   H       10.67724        -1.89918         2.12085
   H       14.95484        -2.91781         0.55234
   H       14.63526        -5.80160        -0.42374
   H       16.86521        -6.92265        -1.00750
   H       22.89915        -5.88021        -1.96028
   H       23.77016        -1.19504        -1.16939
   H       27.26212         0.86869        -0.86541
   H       25.51268         0.65336        -1.06845
   H       26.50489         1.18537        -2.44151
   H       29.43485         0.11769        -2.60537
   H       31.63557        -2.78363        -4.04056
   H       35.52093         0.23660        -5.81836
   H       34.70295         4.94457        -2.98651
   H       37.65460         4.51381        -6.03745
   H       36.97671         2.15159        -6.38841
   H       33.25801         3.06447        -2.38950
*
