# ORCA input file
# SCF done       -228.148247792489          0.000390956404
! CAM-B3LYP def2-SVP def2/J RIJCOSX Grid4 TightSCF
%maxcore 5000
%tddft
    Mode sTDDFT
    Ethresh 5.0
    maxcore 5000
end

%pal
  nprocs 6
  end
* xyz 0 1
   C        7.79772         9.89923        -6.19686
   C        7.15021        11.05302        -6.54181
   F        7.80168        12.22679        -6.46166
   C        5.81907        11.06566        -6.98049
   C        5.14002         9.88226        -7.06712
   C        5.75872         8.66271        -6.72349
   C        7.11450         8.67079        -6.28246
   C        7.76083         7.45878        -5.94430
   C        7.07083         6.28137        -6.04230
   C        5.70978         6.28104        -6.46551
   C        5.06416         7.43508        -6.80461
   C        5.19342         4.90013        -6.44845
   O        4.10261         4.50479        -6.78763
   C        6.28978         4.08196        -5.85157
   C        7.48197         4.90011        -5.80954
   C        8.77498         4.44456        -5.83608
   C        9.11374         3.07733        -5.90167
   N        9.42067         1.97518        -5.99885
   C        9.90150         5.28901        -5.89550
   N       10.84950         5.93536        -5.92367
   C        6.01177         2.82538        -5.41087
   C        6.71730         2.00467        -4.48658
   C        6.54050         0.63812        -4.48153
   C        7.20400        -0.23854        -3.63120
   C        8.16869         0.23701        -2.63858
   C        8.44570         1.54330        -2.42157
   S        7.72875         2.82076        -3.30202
   C        8.67960        -0.93493        -2.01930
   C        8.08661        -2.07417        -2.58038
   C        8.54853        -3.26040        -1.96226
   C        9.45917        -2.99446        -0.99044
   S        9.79538        -1.30939        -0.77297
   C        7.15535        -1.65045        -3.59114
   C        6.31731        -2.43314        -4.42026
   C        6.45071        -3.77102        -4.59789
   C        5.63491        -4.64890        -5.37647
   C        5.64269        -6.02017        -5.03048
   C        6.40484        -6.71314        -3.97191
   O        7.19538        -6.28580        -3.16662
   N        6.03729        -8.06747        -4.04529
   C        5.09509        -8.30044        -5.04856
   O        4.59854        -9.35857        -5.32990
   C        4.85113        -6.97414        -5.66568
   C        3.99125        -6.64596        -6.69506
   C        4.00228        -5.31359        -7.08803
   C        4.79777        -4.33412        -6.48714
   C        4.72749        -3.04314        -7.19533
   O        5.35257        -2.03749        -7.02519
   S        3.51285        -3.13953        -8.52918
   C        3.16333        -4.85865        -8.21740
   O        2.37812        -5.50847        -8.83904
   C        6.58882        -8.99820        -3.17559
   C        6.35015       -10.31730        -3.21024
   C        6.91757       -11.27737        -2.30918
   C        6.66113       -12.61775        -2.46723
   C        7.15619       -13.63623        -1.65151
   C        7.92797       -13.31048        -0.44612
   C        8.31511       -12.05969        -0.10841
   S        7.93982       -10.66244        -1.02472
   C        8.15331       -14.54915         0.21484
   C        7.57361       -15.58123        -0.52027
   C        7.78832       -16.84391         0.07278
   C        8.50566       -16.73778         1.22236
   S        8.95178       -15.11581         1.62659
   C        6.97159       -15.03347        -1.71170
   C        6.42447       -15.86600        -2.70939
   C        6.15552       -15.55522        -4.01184
   C        5.63262       -16.44837        -4.96740
   C        5.55163       -17.81766        -4.98796
   C        4.56264       -18.43751        -5.90822
   O        3.94606       -17.88164        -6.79080
   C        4.45942       -19.84772        -5.48629
   C        3.61469       -20.82007        -5.93528
   C        3.67897       -22.10861        -5.35840
   C        4.62083       -22.36025        -4.31927
   C        4.67582       -23.64466        -3.74425
   C        3.82998       -24.61909        -4.19574
   C        2.89821       -24.39192        -5.21710
   C        2.83068       -23.15017        -5.78544
   F        3.88226       -25.84783        -3.64724
   C        5.48956       -21.33319        -3.87979
   C        5.41396       -20.09623        -4.45947
   C        6.19066       -18.87427        -4.24463
   C        7.42449       -18.83666        -3.63841
   C        8.28638       -17.72466        -3.67768
   N        9.03720       -16.85607        -3.70446
   C        7.99935       -19.92008        -2.94812
   N        8.50088       -20.74972        -2.33141
   H        8.82464         9.92691        -5.86754
   H        5.36067        12.00676        -7.23975
   H        4.11396         9.86652        -7.40242
   H        8.78485         7.49280        -5.60722
   H        4.03578         7.41219        -7.13265
   H        5.07420         2.41546        -5.77589
   H        5.88594         0.23223        -5.24090
   H        9.14441         1.87408        -1.66931
   H        8.23160        -4.25980        -2.19660
   H        9.97268        -3.69910        -0.36600
   H        5.53483        -1.89346        -4.92778
   H        7.23100        -4.27271        -4.04836
   H        3.36166        -7.37120        -7.18397
   H        7.25329        -8.54029        -2.45384
   H        5.68752       -10.71918        -3.96204
   H        6.00170       -12.88242        -3.28061
   H        8.90516       -11.85525         0.77107
   H        7.44214       -17.78354        -0.31825
   H        8.81453       -17.52886         1.87717
   H        6.22018       -16.87747        -2.38046
   H        6.31626       -14.54643        -4.36002
   H        5.14625       -15.98454        -5.82213
   H        2.90568       -20.61020        -6.72204
   H        5.38347       -23.85718        -2.95812
   H        2.25635       -25.19929        -5.53206
   H        2.12114       -22.95006        -6.57424
   H        6.18820       -21.55282        -3.08803
*
