# ORCA input file
# SCF done       -200.254800034563          0.000814451934
! CAM-B3LYP def2-SVP def2/J RIJCOSX Grid4 TightSCF
%maxcore 5000
%tddft
    Mode sTDDFT
    Ethresh 5.0
    maxcore 5000
end

%pal
  nprocs 6
  end
* xyz 0 1
   C        3.89812         1.92979       -10.00464
   C        3.71474         1.21400        -8.85991
   C        3.16296         2.01248        -7.84060
   C        2.94315         3.33087        -8.25591
   S        3.40954         3.58569        -9.87815
   C        2.38161         4.06150        -7.16989
   C        2.24983         3.19709        -6.07259
   C        2.73579         1.87889        -6.45812
   C        2.77271         0.75684        -5.68388
   C        2.31224         0.74294        -4.34973
   N        1.93342         0.71613        -3.26800
   C        3.26851        -0.47131        -6.17053
   N        3.66337        -1.47422        -6.56168
   C        1.70155         3.82110        -4.95181
   C        1.41230         5.15104        -5.18722
   S        1.83375         5.63543        -6.82684
   C        0.83426         6.09780        -4.28379
   C        0.57516         7.40792        -4.65776
   C        0.02768         8.33232        -3.77390
   F       -0.16507         9.58209        -4.23753
   C       -0.29184         8.05368        -2.45439
   C       -0.09255         6.70806        -2.05834
   C        0.48028         5.74011        -2.95284
   N        0.58405         4.54451        -2.37427
   S        0.01671         4.62837        -0.87836
   N       -0.41255         6.17270        -0.88131
   C       -0.79530         9.03771        -1.53163
   C       -0.52139         9.13609        -0.18009
   C        0.56074         8.42067         0.49571
   O        1.48209         7.86692        -0.06301
   C        0.46123         8.50559         1.97169
   C       -0.42581         9.39341         2.63729
   C       -0.31488         9.29697         4.00378
   S        0.84371         8.13070         4.50066
   C        1.20215         7.76459         2.85903
   C        2.20787         6.70307         2.54121
   F        1.71199         5.75309         1.73519
   F        3.31447         7.17770         1.96863
   F        2.60329         6.06999         3.66034
   C       -1.08100        10.05785         5.04343
   F       -2.39759         9.83264         4.97175
   F       -0.70434         9.67263         6.27824
   F       -0.88380        11.37198         4.98215
   C       -1.33969        10.30837         1.91935
   O       -2.09020        11.06780         2.49722
   C       -1.29061        10.14509         0.46845
   C       -2.08114        10.85782        -0.41726
   S       -1.94539        10.23159        -2.02846
   C       -2.92346        11.98813        -0.17233
   S       -4.46792        12.10735        -0.95592
   C       -4.83231        13.63137        -0.19582
   C       -3.78066        14.02136         0.63295
   C       -2.71139        13.09204         0.63041
   N       -1.48971        13.36012         1.32951
   O       -0.48275        12.82135         0.91502
   O       -1.53760        14.13616         2.25062
   C       -3.73925        15.23832         1.33833
   N       -3.74142        16.25618         1.86775
   C       -6.06501        14.25532        -0.50490
   C       -6.53796        15.40683         0.03758
   C       -7.76289        16.00978        -0.32008
   C       -8.28816        17.17769         0.20212
   C       -9.50777        17.51775        -0.37562
   C       -9.93669        16.60986        -1.35570
   S       -8.81392        15.31926        -1.55576
   C      -11.15925        16.99146        -1.91619
   C      -11.65710        18.18439        -1.36289
   S      -10.61559        18.84907        -0.13804
   C      -12.87169        18.46841        -1.99914
   C      -13.06622        17.45007        -2.90601
   N      -12.03820        16.55990        -2.86082
   C      -11.88731        15.36895        -3.64737
   H        4.29864         1.58437       -10.93669
   H        3.96339         0.17336        -8.76054
   H        1.51021         3.35728        -4.00164
   H        0.81010         7.74715        -5.65530
   H       -6.66804        13.74273        -1.24473
   H       -5.96741        15.92752         0.79216
   H       -7.79338        17.74753         0.96687
   H      -13.52042        19.30166        -1.82443
   H      -13.88233        17.30743        -3.58723
   H      -12.69747        15.30815        -4.37115
   H      -11.91047        14.48260        -3.00868
   H      -10.93249        15.38470        -4.17715
*
