# ORCA input file
# SCF done       -190.882919016315          0.000682331417
! CAM-B3LYP def2-SVP def2/J RIJCOSX Grid4 TightSCF
%maxcore 5000
%tddft
    Mode sTDDFT
    Ethresh 5.0
    maxcore 5000
end

%pal
  nprocs 6
  end
* xyz 0 1
   C        0.05031        -2.71743        -2.23705
   C        0.84700        -2.28737        -1.22086
   C        0.75626        -0.89151        -1.05408
   C       -0.12307        -0.29985        -1.96780
   S       -0.82951        -1.44339        -3.01828
   C       -0.15410         1.10546        -1.72749
   C        0.70698         1.38836        -0.66076
   C        1.31019         0.14340        -0.20190
   C        2.20831        -0.00533         0.81546
   C        2.66673         1.09271         1.57155
   N        3.04127         1.98694         2.18508
   C        2.73548        -1.26176         1.17847
   N        3.16942        -2.28038         1.47786
   C        0.74977         2.74769        -0.34105
   C       -0.07271         3.49683        -1.15927
   S       -0.91012         2.50778        -2.34019
   C       -0.28358         4.90676        -1.12536
   C        0.26376         5.79548        -0.24152
   C       -0.13472         7.14194        -0.45727
   C       -1.01841         7.22983        -1.56452
   S       -1.33325         5.68152        -2.28929
   C       -1.59784         8.39026        -2.06244
   O       -2.41122         8.18382        -3.12945
   C       -3.13018         9.23451        -3.73046
   C       -1.27031         9.58726        -1.40137
   C       -0.40143         9.49924        -0.28389
   C        0.17882         8.33861         0.21236
   O        0.97768         8.54889         1.29276
   C        1.66079         7.49514         1.92444
   S       -0.09778        11.04782         0.44517
   C       -1.11967        11.82396        -0.74590
   C       -1.64888        10.93645        -1.63789
   C       -1.30438        13.24428        -0.71581
   C       -2.23530        14.00620        -1.38823
   C       -3.26723        13.42189        -2.29321
   O       -3.23491        13.49381        -3.48751
   O       -4.26242        12.76294        -1.66364
   C       -2.07866        15.40537        -1.16118
   C       -1.03857        15.66186        -0.30430
   S       -0.23235        14.24779         0.21586
   C       -2.91536        16.44098        -1.71873
   C       -2.60522        17.75566        -1.87142
   C       -3.65153        18.53096        -2.43124
   C       -4.80643        17.76251        -2.71698
   S       -4.54368        16.09530        -2.24952
   C       -5.93389        18.33690        -3.28661
   O       -7.10195        17.74532        -3.63838
   C       -7.23326        16.34404        -3.57656
   C       -5.87296        19.72362        -3.53218
   C       -4.72036        20.49460        -3.23069
   C       -3.58625        19.91509        -2.68666
   O       -2.40498        20.49856        -2.35093
   C       -2.19434        21.86645        -2.60647
   S       -5.00188        22.17343        -3.65304
   C       -6.62089        21.81977        -4.21905
   C       -6.92106        20.49515        -4.08913
   C       -7.43920        22.86694        -4.72925
   C       -8.72330        22.76794        -5.22892
   C       -9.21949        24.00820        -5.63798
   C       -8.30717        25.05296        -5.44691
   S       -6.83743        24.51435        -4.76611
   C       -8.90929        26.26473        -5.89196
   C      -10.19623        25.97883        -6.36160
   C      -10.43898        24.55602        -6.22154
   C      -11.56748        23.86799        -6.56265
   C      -12.69442        24.50283        -7.12438
   N      -13.61431        25.01279        -7.58201
   C      -11.68456        22.47531        -6.37647
   N      -11.78630        21.34253        -6.22776
   C      -10.86772        27.12832        -6.82326
   C      -10.09278        28.23961        -6.69697
   S       -8.52889        27.92367        -6.01564
   H       -0.08317        -3.72067        -2.58884
   H        1.46248        -2.93852        -0.62753
   H        1.34884         3.17091         0.44328
   H        0.92905         5.46959         0.53320
   H       -3.73491         8.75788        -4.50119
   H       -2.46395         9.96232        -4.20139
   H       -3.79003         9.73456        -3.01644
   H        2.21345         7.96311         2.73856
   H        2.36789         7.00985         1.24581
   H        0.96772         6.75845         2.34043
   H       -2.25866        11.25684        -2.45807
   H       -4.17694        12.79569        -0.70168
   H       -0.71756        16.61806         0.05574
   H       -1.65284        18.18300        -1.62052
   H       -8.21673        16.13045        -3.99305
   H       -7.19158        15.97815        -2.54699
   H       -6.47065        15.83830        -4.17415
   H       -1.17508        22.06569        -2.27791
   H       -2.88455        22.49654        -2.03913
   H       -2.28073        22.09759        -3.67135
   H       -7.86018        20.05924        -4.37283
   H       -9.25987        21.83958        -5.28882
   H      -11.86420        27.13787        -7.22547
   H      -10.33867        29.24776        -6.96383
*
