# ORCA input file
# SCF done       -192.073010750996          0.000749506797
! CAM-B3LYP def2-SVP def2/J RIJCOSX Grid4 TightSCF
%maxcore 5000
%tddft
    Mode sTDDFT
    Ethresh 5.0
    maxcore 5000
end

%pal
  nprocs 6
  end
* xyz 0 1
   C       -1.05418        -2.94813         0.09806
   C       -0.74163        -2.38686         1.29838
   C       -0.82310        -0.98194         1.24360
   C       -1.20260        -0.51801        -0.02182
   S       -1.45586        -1.79153        -1.12901
   C       -1.26212         0.90447         0.01418
   C       -0.91673         1.33022         1.30323
   C       -0.63251         0.15661         2.12150
   C       -0.27412         0.14336         3.43798
   C       -0.12864         1.32955         4.18702
   N       -0.01309         2.29312         4.79810
   C       -0.03071        -1.05597         4.13937
   N        0.16599        -2.02786         4.71509
   C       -0.94979         2.71812         1.44578
   C       -1.32304         3.34788         0.27344
   S       -1.63208         2.20649        -1.02692
   C       -1.48590         4.73949         0.05291
   C       -1.92305         5.36787        -1.09694
   C       -1.99228         6.75328        -0.94193
   C       -1.59627         7.18092         0.33802
   S       -1.14106         5.87968         1.34814
   C       -1.72660         8.58829         0.40418
   C       -2.21110         9.05350        -0.82995
   C       -2.38472         7.91407        -1.72022
   C       -2.82761         7.93596        -3.01071
   C       -3.18590         9.13530        -3.66044
   N       -3.47848        10.10939        -4.19013
   C       -2.95676         6.75986        -3.77850
   N       -3.06174         5.80636        -4.40694
   C       -2.40553        10.43210        -0.85532
   C       -2.07165        11.03057         0.34815
   S       -1.49593         9.85468         1.52873
   C       -2.17506        12.40775         0.69139
   C       -1.77800        12.90269         1.91199
   C       -1.90309        14.22911         2.31721
   C       -2.60325        15.20425         1.46775
   C       -3.03712        14.94754         0.21533
   S       -2.86817        13.42937        -0.56433
   C       -2.69501        16.39115         2.24530
   C       -2.08841        16.18570         3.48394
   C       -2.14550        17.33508         4.30263
   C       -2.78351        18.35899         3.67793
   S       -3.33284        17.97770         2.08003
   C       -1.55279        14.84936         3.53447
   C       -0.79181        14.38195         4.63051
   C        0.07456        13.33228         4.64276
   C        0.84773        12.95910         5.76733
   C        0.81603        13.45797         7.06333
   C        1.77380        12.86661         7.87891
   C        2.55210        11.90180         7.21304
   S        2.08476        11.71951         5.57927
   C        3.51014        11.39209         8.12101
   C        3.33518        12.02766         9.36458
   C        2.23855        12.97014         9.25607
   C        1.75052        13.79276        10.22966
   C        2.28361        13.80989        11.53520
   N        2.71566        13.82700        12.59744
   C        0.68466        14.68412         9.99074
   N       -0.17838        15.41415         9.79609
   C        4.25719        11.60796        10.32441
   C        5.13486        10.66661         9.82363
   S        4.80884        10.28137         8.13643
   C        6.21470        10.04476        10.50072
   C        7.13671         9.15246         9.98664
   C        8.07755         8.76720        10.94322
   C        7.86575         9.36667        12.19117
   S        6.51242        10.40828        12.19465
   C        8.87546         8.91340        13.08705
   C        9.72004         8.03274        12.40048
   C        9.25474         7.90980        11.03252
   C        9.80218         7.16169        10.03124
   C       10.95297         6.37009        10.22749
   N       11.88942         5.72606        10.38048
   C        9.25663         7.13320         8.73101
   N        8.81666         7.11466         7.67202
   C       10.75548         7.53620        13.21616
   C       10.67641         8.03948        14.47845
   S        9.34729         9.12808        14.71277
   H       -1.07690        -3.98928        -0.15427
   H       -0.46959        -2.95342         2.17004
   H       -0.72192         3.25578         2.34865
   H       -2.18197         4.83042        -1.99157
   H       -2.77477        10.98585        -1.69962
   H       -1.37650        12.18338         2.61242
   H       -3.52291        15.69233        -0.39497
   H       -1.74443        17.40711         5.29718
   H       -2.97416        19.34332         4.05857
   H       -0.87146        14.98565         5.52476
   H        0.25865        12.76879         3.74012
   H        0.12437        14.21327         7.38653
   H        4.30383        11.96668        11.33708
   H        7.11331         8.81422         8.96620
   H       11.51559         6.84824        12.89407
   H       11.32515         7.84000        15.30760
*
