# ORCA input file
# SCF done       -232.749994308786          0.000557817107
! CAM-B3LYP def2-SVP def2/J RIJCOSX Grid4 TightSCF
%maxcore 5000
%tddft
    Mode sTDDFT
    Ethresh 5.0
    maxcore 5000
end

%pal
  nprocs 6
  end
* xyz 0 1
   C       -1.00754         1.30733        -1.07991
   C       -1.90801         0.65818        -0.27706
   C       -2.01134        -0.73693        -0.27459
   C       -1.21014        -1.52579        -1.08092
   C       -0.27244        -0.86635        -1.92525
   N        0.51392        -1.60044        -2.72627
   C        1.37029        -0.98158        -3.49271
   C        1.47236         0.42394        -3.48662
   N        0.72204         1.17134        -2.72370
   C       -0.17038         0.55253        -1.92258
   C       -1.28846        -2.96466        -1.10374
   C       -2.11628        -3.76095        -0.36137
   C       -1.96321        -5.14291        -0.61325
   C       -2.66826        -6.21573        -0.02553
   C       -3.77019        -5.98137         0.88557
   C       -4.76270        -5.04892         0.77423
   C       -5.68737        -5.11171         1.83803
   C       -5.41798        -6.07695         2.76433
   S       -3.98699        -6.94289         2.32069
   C       -6.16889        -6.41353         4.00050
  Cl       -7.04441        -4.05354         1.94255
   C       -2.26646        -7.49501        -0.38401
   C       -1.24798        -7.74084        -1.34059
   C       -0.58656        -6.66461        -1.97526
   C       -0.94510        -5.38528        -1.56742
   S       -0.25386        -3.89274        -2.15886
   C        0.40738        -6.90740        -2.99810
   C        0.38742        -7.85887        -3.97933
   C        1.54018        -7.82737        -4.79135
   C        2.44726        -6.86689        -4.44874
   S        1.86681        -5.96031        -3.09224
   C        3.76114        -6.56389        -5.07108
  Cl        1.76895        -8.92383        -6.10058
   C       -1.02234        -9.12023        -1.51351
   C       -1.84743        -9.91812        -0.75872
   S       -2.93412        -8.98388         0.23743
   C       -1.87013       -11.34379        -0.75115
   C       -2.70614       -12.06681         0.12606
   C       -2.75649       -13.50452         0.16424
   N       -3.57452       -14.09900         1.05955
   C       -4.29426       -13.37573         1.85214
   C       -4.25829       -11.96051         1.80277
   N       -3.48556       -11.35315         0.96368
   F       -5.01239       -11.21887         2.61240
   F       -5.07737       -14.01638         2.72435
   C       -1.97388       -14.29403        -0.70899
   C       -1.14391       -13.57035        -1.59270
   C       -1.08058       -12.12872        -1.61989
   N       -0.22272       -11.69671        -2.54748
   S        0.43153       -12.95597        -3.29759
   N       -0.32997       -14.11747        -2.49585
   C       -1.98155       -15.72100        -0.73983
   C       -2.71170       -16.58433         0.03765
   C       -2.48005       -17.94547        -0.23974
   C       -3.10161       -19.06645         0.35511
   C       -4.03651       -18.94341         1.45143
   C       -5.14701       -19.70276         1.69714
   C       -5.80778       -19.33292         2.88618
   C       -5.21823       -18.30803         3.56934
   S       -3.80871       -17.77287         2.72493
   C       -5.64130       -17.66269         4.83694
  Cl       -7.24322       -20.12066         3.42024
   C       -2.75960       -20.31193        -0.16240
   C       -1.83121       -20.48161        -1.21851
   C       -1.21043       -19.36153        -1.81532
   C       -1.54735       -18.11705        -1.29541
   S       -0.96187       -16.57880        -1.87544
   C       -0.29456       -19.47096        -2.93200
   C        0.80675       -18.70657        -3.19161
   C        1.42268       -19.03077        -4.41958
   C        0.80617       -20.02576        -5.11931
   S       -0.57034       -20.59652        -4.23710
   C        1.17466       -20.61121        -6.43325
  Cl        2.83520       -18.21918        -4.97805
   C       -1.61798       -21.85024        -1.50025
   C       -2.35076       -22.70192        -0.72019
   S       -3.35254       -21.84793         0.42211
   C       -2.36790       -24.14217        -0.77224
   C       -1.59217       -24.87876        -1.64944
   C       -1.64169       -26.27665        -1.67574
   C       -2.46324       -26.98014        -0.83473
   C       -3.27397       -26.27935         0.07766
   N       -4.09204       -26.95095         0.91501
   C       -4.82195       -26.25178         1.74075
   C       -4.77455       -24.84358         1.77562
   N       -3.99061       -24.17487         0.97445
   C       -3.22518       -24.85837         0.11060
   H       -0.91668         2.38147        -1.09078
   H       -2.55733         1.22664         0.37220
   H       -2.73700        -1.19902         0.37598
   H        1.99166        -1.59747        -4.12748
   H        2.18210         0.93728        -4.12140
   H       -2.80392        -3.38115         0.37094
   H       -4.86571        -4.37503        -0.05628
   H       -5.68714        -5.97471         4.87525
   H       -6.20454        -7.49193         4.13933
   H       -7.18270        -6.02492         3.93459
   H       -0.43220        -8.53123        -4.15023
   H        4.57390        -6.79570        -4.38271
   H        3.82946        -5.50747        -5.32571
   H        3.88639        -7.15724        -5.97349
   H       -0.26360        -9.53470        -2.14899
   H       -3.40566       -16.22581         0.77118
   H       -5.50919       -20.47255         1.04218
   H       -6.60535       -18.05726         5.14759
   H       -5.72193       -16.58482         4.70439
   H       -4.91392       -17.85007         5.62663
   H        1.19087       -17.95769        -2.52523
   H        2.00247       -20.05241        -6.86264
   H        0.32896       -20.57837        -7.11880
   H        1.47460       -21.65311        -6.32066
   H       -0.92985       -22.18993        -2.25094
   H       -0.93100       -24.37154        -2.33413
   H       -1.01523       -26.80406        -2.37983
   H       -2.51217       -28.05703        -0.84634
   H       -5.47197       -26.80682         2.40373
   H       -5.38047       -24.26734         2.46068
*
