# ORCA input file
# SCF done       -196.507819894012          0.000582764125
! CAM-B3LYP def2-SVP def2/J RIJCOSX Grid4 TightSCF
%maxcore 5000
%tddft
    Mode sTDDFT
    Ethresh 5.0
    maxcore 5000
end

%pal
  nprocs 6
  end
* xyz 0 1
   C        0.87577         1.85376         0.33451
   C        0.65361         3.03858         0.97845
   F        1.57749         4.00685         0.94443
   C       -0.54645         3.25745         1.68518
   F       -0.73689         4.42826         2.30678
   C       -1.50769         2.28735         1.73857
   C       -1.30770         1.05530         1.08604
   C       -0.09564         0.83302         0.36975
   C        0.12639        -0.39457        -0.29505
   C       -0.83259        -1.37209        -0.24102
   C       -2.03269        -1.14535         0.48584
   C       -2.28013         0.03244         1.13070
   C       -2.88697        -2.34527         0.41912
   O       -4.01004        -2.43215         0.87132
   C       -2.09276        -3.36398        -0.31083
   C       -0.88998        -2.71279        -0.81461
   C        0.00716        -3.21748        -1.71813
   C       -0.07740        -4.46899        -2.36658
   N       -0.07484        -5.45439        -2.95624
   C        1.14423        -2.51366        -2.17159
   N        2.08584        -1.99743        -2.57681
   C       -2.32244        -4.70694        -0.43464
   C       -3.37874        -5.52209         0.02523
   C       -4.57168        -5.23343         0.65828
   C       -5.32679        -6.36116         0.98518
   S       -6.91533        -6.23143         1.69483
   C       -7.42942        -4.59307         1.07380
   C       -4.70906        -7.56337         0.59653
   S       -3.21546        -7.24611        -0.22372
   C       -5.13002        -8.91422         0.73479
   C       -6.02282        -9.37652         1.72749
   C       -6.44938       -10.74482         1.78032
   N       -7.31777       -11.12482         2.73969
   C       -7.71547       -10.27285         3.62672
   C       -7.24399        -8.93486         3.60827
   N       -6.43771        -8.52382         2.68234
   F       -7.61483        -8.06736         4.54274
   F       -8.57496       -10.69261         4.54875
   C       -5.99112       -11.73319         0.88325
   C       -5.05243       -11.29179        -0.07572
   C       -4.62448        -9.91435        -0.13012
   N       -3.72672        -9.71547        -1.09384
   S       -3.44578       -11.09971        -1.85263
   N       -4.44463       -12.02697        -1.00823
   C       -6.42504       -13.08392         0.99446
   C       -6.01743       -14.17367         0.24957
   C       -6.60659       -15.37463         0.65343
   S       -6.16700       -16.89589        -0.09210
   C       -6.03578       -18.01808         1.34049
   C       -7.50296       -15.21917         1.71063
   S       -7.55626       -13.54693         2.22338
   C       -8.40556       -16.16527         2.23962
   C       -9.08066       -16.06513         3.42166
   C      -10.37546       -16.75991         3.63363
   O      -10.82887       -17.67445         2.98491
   C      -11.00715       -16.04289         4.76514
   C      -12.26610       -16.17615         5.27492
   C      -12.66979       -15.33500         6.33741
   C      -11.75981       -14.36546         6.85155
   C      -12.17739       -13.51978         7.89861
   C      -13.43739       -13.63377         8.41526
   C      -14.33480       -14.59553         7.90999
   C      -13.96052       -15.42882         6.89325
   F      -15.56471       -14.68540         8.43541
   F      -13.83326       -12.82890         9.41066
   C      -10.45616       -14.25967         6.31528
   C      -10.08756       -15.09033         5.29259
   C       -8.83003       -15.22081         4.56902
   C       -7.59269       -14.85254         5.03098
   C       -6.41242       -15.29440         4.40175
   N       -5.45384       -15.70740         3.92223
   C       -7.37721       -14.09101         6.19474
   N       -7.15345       -13.45883         7.12628
   H        1.79903         1.70350        -0.20296
   H       -2.42026         2.46982         2.28415
   H        1.05521        -0.53135        -0.82427
   H       -3.20289         0.17847         1.67139
   H       -1.54939        -5.27707        -0.93627
   H       -4.86182        -4.22642         0.88922
   H       -8.49794        -4.54060         1.25736
   H       -7.22840        -4.51560         0.01077
   H       -6.92690        -3.80433         1.62392
   H       -5.30147       -14.09968        -0.54764
   H       -5.21227       -18.68979         1.11730
   H       -6.94944       -18.58892         1.46814
   H       -5.81027       -17.43120         2.22574
   H       -8.69322       -16.98466         1.58898
   H      -12.94887       -16.90859         4.87183
   H      -11.50101       -12.77991         8.29716
   H      -14.66062       -16.15834         6.51719
   H       -9.78463       -13.51352         6.70993
*
