# ORCA input file
# SCF done       -261.329189765939          0.000829209166
! CAM-B3LYP def2-SVP def2/J RIJCOSX Grid4 TightSCF
%maxcore 5000
%tddft
    Mode sTDDFT
    Ethresh 5.0
    maxcore 5000
end

%pal
  nprocs 6
  end
* xyz 0 1
   C      -10.30911         2.47610         5.56032
   C      -10.92396         2.73924         6.75207
   F      -11.27248         3.99369         7.06784
   C      -11.19935         1.69915         7.66225
   F      -11.80330         1.98615         8.82381
   C      -10.85629         0.40951         7.36755
   C      -10.22211         0.10613         6.14720
   C       -9.94138         1.15699         5.22659
   C       -9.30179         0.87726         3.99731
   C       -8.95401        -0.41389         3.69841
   C       -9.24641        -1.45656         4.61888
   C       -9.86107        -1.21804         5.81403
   C       -8.79434        -2.74895         4.06577
   O       -8.90200        -3.82544         4.61567
   C       -8.25602        -2.44084         2.72064
   C       -8.29080        -0.99920         2.53759
   C       -7.73401        -0.28856         1.50670
   C       -7.78856         1.11746         1.40145
   N       -7.80459         2.25568         1.25452
   C       -6.99810        -0.83261         0.43183
   N       -6.36934        -1.18346        -0.46263
   C       -7.94220        -3.32609         1.72509
   C       -7.80791        -4.73008         1.76521
   C       -7.63401        -5.60278         2.81401
   C       -7.51328        -6.94791         2.42125
   C       -7.35520        -8.07859         3.26010
   C       -7.43312        -7.95742         4.69634
   C       -8.25323        -7.14431         5.43469
   C       -8.08740        -7.30092         6.82235
   C       -7.14235        -8.22280         7.15847
   S       -6.43887        -8.93612         5.74522
   C       -6.70140        -8.64492         8.51262
   C       -7.15509        -9.29378         2.61432
   C       -7.18673        -9.44285         1.20283
   C       -7.41936        -8.32687         0.36978
   C       -7.54243        -7.09860         1.00803
   S       -7.77729        -5.57032         0.21786
   C       -7.52519        -8.47048        -1.06645
   C       -8.16819        -9.44825        -1.77426
   C       -8.07789        -9.27601        -3.16905
   C       -7.36222        -8.17723        -3.53497
   S       -6.79093        -7.31470        -2.14523
   C       -7.05281        -7.68499        -4.90200
   C       -6.94158       -10.77669         0.80768
   C       -6.75259       -11.62742         1.86241
   S       -6.86986       -10.82222         3.40439
   C       -6.47385       -13.01771         1.78233
   N       -6.51592       -13.69839         0.67509
   C       -6.19807       -14.97410         0.89363
   C       -5.88251       -15.32585         2.21783
   S       -6.01694       -13.94596         3.23132
   N       -5.55302       -16.59870         2.43444
   C       -5.60441       -17.28228         1.32946
   S       -6.07901       -16.35809        -0.11666
   C       -5.29004       -18.66477         1.24775
   C       -4.79156       -19.44041         2.25923
   C       -4.55653       -20.77816         1.87298
   C       -4.01307       -21.82379         2.65140
   C       -3.57003       -21.61210         4.01293
   C       -2.87859       -20.55503         4.53610
   C       -2.62331       -20.68448         5.91527
   C       -3.12371       -21.82998         6.45516
   S       -3.91596       -22.79186         5.25214
   C       -3.07599       -22.29147         7.86611
   C       -3.95139       -23.06915         2.04197
   C       -4.39305       -23.32373         0.71863
   C       -4.87639       -22.26399        -0.08108
   C       -4.95153       -21.01784         0.53102
   S       -5.51976       -19.55727        -0.23222
   C       -5.25409       -22.48119        -1.45956
   C       -4.62168       -23.25376        -2.39584
   C       -5.26062       -23.24350        -3.64989
   C       -6.38468       -22.47490        -3.67874
   S       -6.66778       -21.72574        -2.14263
   C       -7.31548       -22.24012        -4.81225
   C       -4.29682       -24.69198         0.38941
   C       -3.78218       -25.47345         1.39437
   S       -3.33070       -24.51051         2.78850
   C       -3.54347       -26.86906         1.32194
   C       -3.24348       -27.73339         2.32770
   C       -2.55036       -29.01353         2.01915
   O       -2.45561       -29.55003         0.94005
   C       -1.94481       -29.43556         3.30070
   C       -1.09315       -30.47398         3.54480
   C       -0.60754       -30.67046         4.85715
   C       -1.01411       -29.78174         5.89480
   C       -0.51843       -29.98005         7.19923
   C        0.33741       -31.01241         7.46188
   C        0.73721       -31.89153         6.43559
   C        0.27511       -31.72551         5.16024
   F        1.57863       -32.89474         6.72180
   F        0.80689       -31.19867         8.70296
   C       -1.90549       -28.72094         5.61488
   C       -2.36680       -28.55332         4.33705
   C       -3.31003       -27.59571         3.76887
   C       -4.26523       -26.90586         4.46647
   C       -5.36944       -26.28766         3.83903
   N       -6.31654       -25.85224         3.35927
   C       -4.29302       -26.81001         5.87109
   N       -4.32905       -26.67695         7.01074
   H      -10.10424         3.28415         4.87553
   H      -11.07444        -0.37547         8.07462
   H       -9.10835         1.69376         3.32091
   H      -10.06952        -2.02922         6.49500
   H       -7.80813        -2.91086         0.73271
   H       -7.55556        -5.27467         3.83178
   H       -8.98074        -6.48132         5.00392
   H       -8.65321        -6.74539         7.54873
   H       -7.22077        -8.06416         9.27106
   H       -5.62785        -8.50105         8.63060
   H       -6.91361        -9.70206         8.67214
   H       -8.72672       -10.24116        -1.30999
   H       -8.53087        -9.94672        -3.87742
   H       -7.46971        -8.36091        -5.64466
   H       -5.97568        -7.61695        -5.05170
   H       -7.47187        -6.69075        -5.05542
   H       -6.86991       -11.10816        -0.21080
   H       -4.62112       -19.04946         3.24421
   H       -2.52350       -19.73135         3.94298
   H       -2.08450       -19.95019         6.48744
   H       -2.37005       -21.68957         8.43335
   H       -2.78034       -23.33785         7.91911
   H       -4.05934       -22.20349         8.32904
   H       -3.69952       -23.77305        -2.20461
   H       -4.89748       -23.78850        -4.50309
   H       -6.97025       -22.77335        -5.69460
   H       -7.37834       -21.17732        -5.04361
   H       -8.31865       -22.58505        -4.56275
   H       -4.64974       -25.10643        -0.53751
   H       -3.50463       -27.28666         0.32051
   H       -0.79282       -31.13698         2.74774
   H       -0.81713       -29.31840         7.99722
   H        0.59080       -32.40679         4.38571
   H       -2.19538       -28.05802         6.41470
*
