# ORCA input file
# SCF done       -215.325175649761          0.000700866837
! CAM-B3LYP def2-SVP def2/J RIJCOSX Grid4 TightSCF
%maxcore 5000
%tddft
    Mode sTDDFT
    Ethresh 5.0
    maxcore 5000
end

%pal
  nprocs 6
  end
* xyz 0 1
   C       -5.61002        -0.01762        -8.32697
   C       -6.09075        -0.19787        -9.59383
   F       -6.10757         0.82338       -10.45892
   C       -6.57386        -1.45643       -10.00583
   F       -7.03866        -1.60420       -11.25291
   C       -6.56998        -2.51767        -9.14436
   C       -6.08194        -2.36299        -7.83237
   C       -5.59250        -1.09144        -7.41442
   C       -5.09757        -0.91162        -6.10191
   C       -5.09314        -1.97028        -5.23226
   C       -5.58529        -3.23507        -5.66007
   C       -6.06808        -3.44117        -6.92033
   C       -5.47557        -4.19316        -4.55006
   O       -5.81104        -5.36559        -4.57351
   C       -4.88628        -3.45927        -3.42502
   C       -4.65591        -2.08663        -3.84192
   C       -4.13453        -1.06463        -3.09354
   C       -3.71839        -1.15333        -1.74783
   N       -3.36095        -1.14006        -0.65672
   C       -3.94249         0.24798        -3.57651
   N       -3.76033         1.33205        -3.90620
   C       -4.59361        -3.99117        -2.19462
   C       -4.77963        -5.29178        -1.70009
   C       -4.39836        -5.64750        -0.39870
   C       -4.66961        -6.97111        -0.11007
   C       -5.27125        -7.63911        -1.20303
   S       -5.49244        -6.64996        -2.56952
   C       -5.50807        -8.97913        -0.81747
   C       -5.06232        -9.16907         0.50565
   C       -4.52157        -7.90932         0.99479
   C       -3.98895        -7.66047         2.22414
   C       -3.89735        -8.65449         3.22255
   N       -3.82456        -9.45346         4.04104
   C       -3.49205        -6.38872         2.58412
   N       -3.08057        -5.36069         2.87957
   C       -5.25472       -10.47304         0.95904
   C       -5.84418       -11.26566        -0.01256
   S       -6.16512       -10.39654        -1.49845
   C       -6.18033       -12.63790         0.08208
   N       -5.95186       -13.39037         1.11837
   C       -6.36927       -14.63617         0.89955
   C       -6.95508       -14.88804        -0.35638
   S       -6.96847       -13.45635        -1.29636
   N       -7.36721       -16.13025        -0.58224
   C       -7.13143       -16.89216         0.44845
   S       -6.35331       -16.08381         1.82965
   C       -7.47235       -18.26448         0.44620
   C       -7.29082       -19.23035         1.42047
   C       -7.76754       -20.47158         0.99993
   C       -8.31040       -20.43105        -0.29897
   S       -8.23634       -18.88066        -1.00362
   C       -8.76013       -21.72807        -0.63928
   C       -8.51293       -22.59574         0.44217
   C       -7.87735       -21.83315         1.50703
   C       -7.47006       -22.29638         2.72233
   C       -7.64306       -23.64327         3.10908
   N       -7.79120       -24.73350         3.42989
   C       -6.85613       -21.45786         3.67788
   N       -6.36114       -20.77754         4.45620
   C       -8.94184       -23.89619         0.19287
   C       -9.47633       -24.03879        -1.07915
   S       -9.49156       -22.50999        -1.95753
   C      -10.05672       -25.20907        -1.62327
   C      -10.33349       -25.48891        -2.92566
   C      -11.38977       -26.48622        -3.26281
   O      -11.87975       -27.30207        -2.51977
   C      -11.74822       -26.19867        -4.66812
   C      -12.76595       -26.71378        -5.41833
   C      -12.94797       -26.24897        -6.74063
   C      -12.06826       -25.25602        -7.26270
   C      -12.26498       -24.78750        -8.57723
   C      -13.28631       -25.28177        -9.33889
   C      -14.15469       -26.26509        -8.82285
   C      -13.98936       -26.74033        -7.55200
   F      -15.14842       -26.72942        -9.59095
   F      -13.47345       -24.83354       -10.58639
   C      -11.01488       -24.75029        -6.46748
   C      -10.85702       -25.21806        -5.19096
   C       -9.87184       -24.89628        -4.16388
   C       -8.62180       -24.38708        -4.39775
   C       -7.61642       -24.33023        -3.41031
   N       -6.77416       -24.29913        -2.63121
   C       -8.18391       -23.94250        -5.66169
   N       -7.79157       -23.55830        -6.66924
   H       -5.24409         0.95234        -8.02839
   H       -6.94313        -3.47440        -9.47476
   H       -4.73436         0.06321        -5.82056
   H       -6.43446        -4.41250        -7.21595
   H       -4.14414        -3.32582        -1.46737
   H       -3.94535        -4.94308         0.27655
   H       -4.99363       -10.85504         1.92862
   H       -6.83436       -19.02229         2.37148
   H       -8.85334       -24.72098         0.87680
   H      -10.40959       -25.93869        -0.90073
   H      -13.42692       -27.46207        -5.00837
   H      -11.60692       -24.03804        -8.98844
   H      -14.66299       -27.49255        -7.17247
   H      -10.36705       -23.99336        -6.88054
*
