# ORCA input file
# SCF done       -206.379590487259          0.000229601567
! CAM-B3LYP def2-SVP def2/J RIJCOSX Grid4 TightSCF
%maxcore 5000
%tddft
    Mode sTDDFT
    Ethresh 5.0
    maxcore 5000
end

%pal
  nprocs 6
  end
* xyz 0 1
   C        1.98674         4.91447        -0.63931
   C        1.32846         3.83889        -0.17745
   C       -0.08211         4.02705         0.01826
   S       -0.54337         5.66140        -0.42051
   C        1.16173         6.08827        -0.86405
   O        1.46879         7.17500        -1.26500
   C       -0.91961         3.06208         0.48014
   C       -2.31447         3.15168         0.70607
   C       -3.10252         2.13215         1.18536
   C       -4.46133         2.47886         1.33084
   C       -5.52380         1.67348         1.79689
   C       -5.32571         0.26624         2.07351
   C       -4.59889        -0.63021         1.34175
   C       -4.62960        -1.93090         1.88786
   C       -5.36542        -2.04486         3.03159
   S       -6.05338        -0.51191         3.45153
   C       -5.61143        -3.25042         3.86242
  Cl       -3.80158        -3.25330         1.15602
   C       -6.75756         2.29627         1.94495
   C       -6.99265         3.64437         1.57160
   C       -5.94670         4.43193         1.04777
   C       -4.69529         3.83238         0.97322
   S       -3.23993         4.60676         0.41190
   C       -6.17659         5.79569         0.61575
   C       -7.23032         6.28417        -0.10278
   C       -7.12969         7.67207        -0.33994
   C       -6.01681         8.25605         0.19251
   S       -5.05169         7.06898         1.00146
   C       -5.59667         9.67879         0.14433
  Cl       -8.32463         8.53985        -1.22805
   C       -8.33066         4.02874         1.82062
   C       -9.09910         3.03070         2.35141
   S       -8.19793         1.55325         2.58213
   C      -10.48734         3.08942         2.71834
   C      -11.34816         4.07785         2.27679
   C      -12.69220         4.10174         2.64905
   F      -13.42830         5.10906         2.13949
   C      -13.29910         3.18911         3.50096
   C      -12.43405         2.16602         3.97560
   C      -11.05491         2.10723         3.56945
   N      -10.42261         1.06307         4.09688
   S      -11.44978         0.23440         5.00893
   N      -12.74764         1.15548         4.78546
   C      -14.68473         3.23885         3.88356
   C      -15.25477         2.59569         4.94496
   C      -16.64467         2.81959         5.06818
   C      -17.52284         2.28862         6.03484
   C      -17.05833         1.50719         7.16188
   C      -17.66541         0.43676         7.75435
   C      -16.96441        -0.03078         8.88660
   C      -15.83322         0.67293         9.18229
   S      -15.60883         1.94261         8.02853
   C      -14.87671         0.47304        10.30006
  Cl      -17.50692        -1.37878         9.81028
   C      -18.87217         2.58278         5.86998
   C      -19.37430         3.38513         4.81234
   C      -18.49122         3.93290         3.85676
   C      -17.14059         3.64111         4.02430
   S      -15.85792         4.16625         2.97502
   C      -18.94227         4.74012         2.74184
   C      -18.32464         5.82447         2.18647
   C      -19.00861         6.32765         1.05860
   C      -20.13838         5.63809         0.72665
   S      -20.38167         4.33558         1.83995
   C      -21.08265         5.87564        -0.39360
  Cl      -18.44854         7.69992         0.18334
   C      -20.77012         3.58018         4.91488
   C      -21.34521         2.96205         5.99338
   S      -20.15236         2.07536         6.93093
   C      -22.69690         2.88369         6.42680
   C      -23.75469         3.65497         6.06568
   S      -25.36817         3.27074         6.66645
   C      -26.10530         4.65391         5.77477
   O      -27.27986         4.89422         5.79600
   C      -25.03252         5.35804         5.09136
   C      -23.80648         4.83108         5.24592
   H        3.04051         4.97006        -0.84748
   H        1.78463         2.88861         0.04282
   H       -0.47999         2.09832         0.70945
   H       -2.70276         1.17138         1.45400
   H       -4.09973        -0.39097         0.42109
   H       -5.06756        -4.09710         3.45114
   H       -6.67426        -3.48946         3.88342
   H       -5.28542        -3.08334         4.88814
   H       -8.02555         5.67710        -0.49431
   H       -6.31748        10.25664        -0.42868
   H       -4.61611         9.77127        -0.32098
   H       -5.52988        10.09346         1.14977
   H       -8.69172         5.02651         1.65520
   H      -11.00300         4.85439         1.61358
   H      -14.68319         1.96734         5.60000
   H      -18.55856        -0.03239         7.38622
   H      -14.94009         1.29781        11.01026
   H      -13.85426         0.42887         9.92823
   H      -15.10897        -0.45321        10.81961
   H      -17.43315         6.27855         2.57682
   H      -22.10389         5.96321        -0.02543
   H      -21.05260         5.04819        -1.10249
   H      -20.81080         6.79155        -0.91198
   H      -21.33154         4.13284         4.18765
   H      -22.89576         2.09996         7.14700
   H      -25.27067         6.24080         4.52422
   H      -22.91359         5.26139         4.83059
*
