# ORCA input file
# SCF done       -256.783552744732          0.000540251568
! CAM-B3LYP def2-SVP def2/J RIJCOSX Grid4 TightSCF
%maxcore 5000
%tddft
    Mode sTDDFT
    Ethresh 5.0
    maxcore 5000
end

%pal
  nprocs 6
  end
* xyz 0 1
   C        2.34792        -2.61152        -3.91465
   O        2.15052        -3.79274        -4.11294
   C        3.35584        -1.77343        -4.59980
   C        3.27520        -0.45529        -4.11912
   C        4.13841         0.50667        -4.61788
   C        5.06463         0.13379        -5.58571
   C        5.13439        -1.17825        -6.05659
   C        4.27118        -2.14672        -5.56092
  Br        6.40516        -1.65773        -7.37146
  Br        6.24609         1.44737        -6.26099
   C        2.21748        -0.38385        -3.11104
   C        1.84369         0.75560        -2.44582
   C        2.43823         2.01916        -2.65055
   N        2.87981         3.07185        -2.77038
   C        0.82476         0.85492        -1.47474
   N        0.01716         1.03146        -0.67692
   C        1.66334        -1.71670        -2.96966
   C        0.68720        -2.07842        -2.07772
   C        0.09460        -3.32643        -1.82027
   C       -0.85065        -3.47663        -0.81608
   C       -1.32365        -4.78339        -0.65860
   C       -2.23142        -5.27503         0.31706
   C       -2.93019        -4.40646         1.23399
   C       -3.29833        -4.65661         2.52958
   C       -4.02783        -3.60747         3.11692
   C       -4.24302        -2.55553         2.27815
   S       -3.52174        -2.84161         0.73129
   C       -4.96948        -1.28824         2.54614
   C       -2.42722        -6.65043         0.32849
   C       -1.82368        -7.52866        -0.60906
   C       -0.92993        -7.03794        -1.58449
   C       -0.70179        -5.66728        -1.58414
   S        0.42083        -4.84379        -2.62879
   C       -0.26576        -7.93152        -2.51034
   C        0.29540        -9.15168        -2.25053
   C        0.86836        -9.75377        -3.38738
   C        0.74219        -9.00472        -4.51759
   S       -0.08406        -7.51763        -4.19175
   C        1.21263        -9.31886        -5.89168
   C       -2.26080        -8.85978        -0.44229
   C       -3.11837        -9.03683         0.61139
   S       -3.46745        -7.52484         1.42326
   C       -3.67826       -10.24781         1.14026
   C       -3.47829       -11.53195         0.61425
   O       -2.76332       -11.59317        -0.53137
   C       -2.01093       -12.73574        -0.89959
   C       -4.03182       -12.69745         1.23307
   O       -3.88825       -13.89708         0.56485
   C       -5.06767       -14.32949        -0.09407
   C       -4.69384       -12.66760         2.45804
   C       -4.93419       -11.37323         2.98176
   C       -4.46065       -10.19064         2.31911
   N       -4.85339        -9.15916         3.03969
   O       -5.52573        -9.65914         4.07541
   N       -5.58393       -10.98826         4.06005
   C       -5.10877       -13.82305         3.20330
   C       -4.77434       -15.13580         3.00204
   C       -5.30450       -16.01246         3.97212
   C       -5.10409       -17.40669         4.06978
   C       -4.37392       -18.16645         3.07673
   C       -3.49816       -19.19585         3.28029
   C       -3.00135       -19.75361         2.08579
   C       -3.50044       -19.16868         0.96353
   S       -4.59811       -17.88895         1.36940
   C       -3.21182       -19.49073        -0.45803
   C       -5.65011       -18.02314         5.18570
   C       -6.37448       -17.33341         6.19393
   C       -6.58461       -15.93898         6.08773
   C       -6.05091       -15.32105         4.95870
   S       -6.10239       -13.61077         4.62662
   C       -7.27797       -15.16979         7.09461
   C       -8.09277       -14.08400         6.91132
   C       -8.55511       -13.52208         8.11468
   C       -8.08771       -14.15571         9.22650
   S       -7.07016       -15.48911         8.79774
   C       -8.35127       -13.83751        10.65308
   C       -6.84992       -18.21409         7.18546
   C       -6.47415       -19.52272         7.00347
   S       -5.57047       -19.72986         5.51378
   C       -6.82230       -20.60313         7.84876
   C       -6.27112       -21.84643         7.91263
   C       -7.03965       -22.97195         8.50292
   O       -8.03617       -22.90436         9.18227
   C       -6.35171       -24.19282         8.01984
   C       -5.19232       -23.83099         7.30821
   C       -5.04007       -22.37979         7.36949
   C       -3.86216       -21.69870         7.21512
   C       -3.68192       -20.36330         7.63848
   N       -3.47355       -19.30857         8.03986
   C       -2.68129       -22.27810         6.71025
   N       -1.70598       -22.69605         6.27267
   C       -4.40014       -24.80925         6.73321
   C       -4.77685       -26.13921         6.88150
   C       -5.91947       -26.49224         7.60199
   C       -6.71875       -25.51277         8.17837
  Br       -6.39819       -28.31042         7.80051
  Br       -3.70883       -27.47889         6.08259
   H        4.11734         1.52981        -4.27988
   H        4.31442        -3.16508        -5.91470
   H        0.30089        -1.29342        -1.43874
   H       -1.15359        -2.64625        -0.20421
   H       -3.02259        -5.54902         3.06047
   H       -4.38598        -3.63340         4.13055
   H       -5.35682        -1.28949         3.56203
   H       -5.80064        -1.16657         1.85187
   H       -4.30675        -0.43198         2.42216
   H        0.33975        -9.58037        -1.26506
   H        1.36343       -10.70898        -3.36633
   H        1.72810       -10.27633        -5.90022
   H        1.89492        -8.54768        -6.24737
   H        0.37325        -9.36471        -6.58529
   H       -1.96463        -9.65399        -1.09679
   H       -1.58482       -13.23812        -0.03088
   H       -1.20941       -12.35268        -1.53389
   H       -2.61034       -13.44614        -1.47171
   H       -4.83627       -15.30826        -0.50944
   H       -5.33836       -13.63810        -0.89916
   H       -5.90725       -14.42035         0.59980
   H       -4.12484       -15.45610         2.21016
   H       -3.18189       -19.51757         4.25636
   H       -2.29587       -20.56486         2.06403
   H       -2.54245       -20.34548        -0.51462
   H       -2.74146       -18.64369        -0.95773
   H       -4.13037       -19.72629        -0.99491
   H       -8.38469       -13.72114         5.94292
   H       -9.20987       -12.67009         8.15503
   H       -8.99524       -12.96460        10.72600
   H       -7.41945       -13.63295        11.17967
   H       -8.83653       -14.67600        11.15237
   H       -7.43553       -17.90653         8.03229
   H       -7.69355       -20.44592         8.47703
   H       -3.51298       -24.56792         6.16964
   H       -7.60378       -25.77660         8.73630
*
