# ORCA input file
# SCF done       -193.551168570853          0.000388876167
! CAM-B3LYP def2-SVP def2/J RIJCOSX Grid4 TightSCF
%maxcore 5000
%tddft
    Mode sTDDFT
    Ethresh 5.0
    maxcore 5000
end

%pal
  nprocs 6
  end
* xyz 0 1
   C        2.14804         2.77912        -0.94711
   C        1.23128         2.98943        -1.94386
   C        1.56611         3.08290        -3.30865
   N        1.79322         3.18556        -4.42927
   C       -0.15854         3.03319        -1.70863
   N       -1.29572         3.01541        -1.55252
   C        3.54472         2.40861        -1.14359
   C        4.00684         1.75584         0.03718
   C        5.27393         1.25690         0.12950
   C        6.15287         1.40015        -0.96805
   C        5.70064         2.06424        -2.14498
   C        4.38001         2.56488        -2.21595
   C        6.59011         2.20408        -3.22952
   C        7.86427         1.71033        -3.15868
   C        8.30854         1.05636        -1.99988
   C        7.47098         0.90431        -0.92838
   C        2.93144         1.75139         1.04633
   O        2.93532         1.24050         2.14274
   C        1.84425         2.58219         0.45424
   C        0.87924         3.09491         1.26337
   C        0.03799         4.21531         1.06610
   C       -1.07448         4.52543         1.82856
   C       -1.65128         5.73393         1.45373
   C       -0.96425         6.38684         0.41844
   S        0.39881         5.47998        -0.10475
   C       -1.54433         7.61013         0.08074
   C       -2.67661         7.88835         0.86070
   S       -3.03238         6.63458         2.01495
   C       -3.27761         9.10754         0.55673
   C       -2.61493         9.76358        -0.46190
   S       -1.23052         8.86881        -1.05439
   C       -2.94786        11.03630        -1.01581
   C       -2.25289        11.59173        -2.08745
   O       -1.21929        10.85674        -2.61434
   C       -1.37635        10.44252        -3.96581
   C       -2.53833        12.88388        -2.60428
   O       -1.77964        13.39913        -3.62526
   C       -0.40495        13.62411        -3.34087
   C       -3.60023        13.66159        -2.14764
   C       -4.36016        13.09706        -1.08837
   C       -4.02344        11.81722        -0.51455
   N       -4.88671        11.58726         0.45399
   O       -5.70114        12.63814         0.48827
   N       -5.40323        13.55597        -0.42680
   C       -3.88546        14.95747        -2.67429
   C       -4.86334        15.82958        -2.23704
   C       -4.84100        17.02789        -2.94688
   C       -3.85094        17.07315        -3.93972
   S       -2.93531        15.61307        -3.99079
   C       -3.84275        18.29204        -4.61900
   C       -4.82389        19.17982        -4.13898
   S       -5.77465        18.49435        -2.84788
   C       -4.83266        20.41316        -4.77586
   C       -3.85888        20.49700        -5.75860
   S       -2.93292        18.99468        -5.89170
   C       -3.49615        21.51586        -6.66180
   C       -3.87490        22.82754        -6.74740
   C       -3.39043        23.73200        -7.77940
   C       -2.78286        23.38618        -8.95882
   C       -2.35025        24.31940        -9.92449
   N       -1.96952        25.02287       -10.74819
   C       -2.53729        22.07219        -9.41065
   N       -2.31765        21.04044        -9.86577
   C       -3.73356        25.09139        -7.38068
   C       -4.50865        25.02669        -6.18939
   C       -4.67515        23.62069        -5.78236
   O       -5.32828        23.23084        -4.83600
   C       -4.98324        26.14840        -5.57332
   C       -4.69300        27.41401        -6.13006
   C       -3.91411        27.48843        -7.32071
   C       -3.43969        26.30794        -7.93750
   C       -3.62822        28.75640        -7.86648
   C       -4.08791        29.89689        -7.26622
   C       -4.85343        29.82242        -6.09302
   C       -5.15012        28.60737        -5.53748
   H        5.60356         0.75816         1.02882
   H        4.06272         3.07164        -3.11426
   H        6.24244         2.70551        -4.12082
   H        8.53711         1.82047        -3.99594
   H        9.31743         0.67366        -1.96045
   H        7.80742         0.40142        -0.03350
   H        0.80763         2.63292         2.24394
   H       -1.45304         3.88101         2.60047
   H       -4.14681         9.51157         1.04012
   H       -0.46048         9.91220        -4.21712
   H       -1.51323        11.29202        -4.63722
   H       -2.22879         9.76391        -4.06059
   H        0.10584        12.70674        -3.04427
   H       -0.29644        14.37148        -2.54968
   H        0.02323        14.00780        -4.26428
   H       -5.54253        15.58996        -1.44100
   H       -5.49900        21.22262        -4.54242
   H       -2.76265        21.18592        -7.38906
   H       -5.57084        26.07073        -4.67053
   H       -2.84732        26.39908        -8.83389
   H       -3.03914        28.80847        -8.77039
   H       -3.86386        30.86334        -7.69237
   H       -5.20675        30.73246        -5.63159
   H       -5.73925        28.54362        -4.63424
*
