# ORCA input file
# SCF done       -210.412186016005          0.000889837986
! CAM-B3LYP def2-SVP def2/J RIJCOSX Grid4 TightSCF
%maxcore 5000
%tddft
    Mode sTDDFT
    Ethresh 5.0
    maxcore 5000
end

%pal
  nprocs 6
  end
* xyz 0 1
   C        5.73849         7.50148         3.05180
   C        5.78589         8.38303         2.00511
   C        6.50345         9.59647         2.03890
   N        7.06757        10.59569         2.02329
   C        5.20720         8.12369         0.74536
   N        4.78449         7.92383        -0.30311
   C        6.54829         7.57903         4.26086
   C        6.64632         6.27217         4.82408
   C        7.38961         6.03021         5.94365
   C        8.06821         7.10234         6.56568
   C        7.95634         8.41377         6.01849
   C        7.18635         8.63469         4.85381
   C        8.63126         9.47529         6.65477
   C        9.38531         9.25398         7.77486
   C        9.49752         7.96245         8.31125
   C        8.85332         6.90987         7.71972
   C        5.84169         5.33135         4.02469
   O        5.72495         4.13693         4.16302
   C        5.12616         6.18678         3.02923
   C        4.03978         5.70487         2.37842
   C        3.01000         6.43480         1.72539
   C        2.17682         5.94642         0.73485
   F        2.30080         4.71368         0.24502
   C        1.23210         6.87454         0.28520
   C        1.30865         8.08414         0.98485
   S        2.56178         8.07426         2.16443
   C        0.35492         9.00831         0.54469
   C       -0.42059         8.49230        -0.49846
   S       -0.00147         6.86372        -0.93921
   C       -1.36650         9.41673        -0.96126
   F       -2.17232         9.16042        -1.99570
   C       -1.34019        10.61861        -0.27902
   S       -0.08078        10.63003         0.93751
   C       -2.12177        11.80967        -0.49434
   C       -3.39595        11.85889        -1.04935
   O       -4.12852        10.72797        -1.28934
   C       -4.45378         9.93476        -0.16274
   C       -4.02031        13.10204        -1.39590
   O       -5.19818        13.17097        -2.05142
   C       -5.63436        12.15917        -2.94151
   C       -3.49542        14.33841        -1.01307
   C       -2.23582        14.30719        -0.36496
   C       -1.55731        13.05948        -0.13542
   N       -0.39282        13.33758         0.41198
   O       -0.34021        14.66392         0.51168
   N       -1.42808        15.26304         0.04810
   C       -4.18135        15.56497        -1.30721
   C       -4.02335        16.80330        -0.71378
   F       -3.28005        17.02867         0.36940
   C       -4.79095        17.81088        -1.31433
   C       -5.55090        17.33211        -2.38564
   S       -5.35613        15.63215        -2.60245
   C       -6.30272        18.34863        -2.98331
   C       -6.10994        19.58518        -2.35328
   S       -4.99393        19.51279        -1.02089
   C       -6.87114        20.60364        -2.93528
   F       -6.76805        21.88129        -2.58204
   C       -7.63945        20.17320        -4.00540
   S       -7.38477        18.46567        -4.31635
   C       -8.49781        20.92995        -4.84565
   C       -9.26381        21.97464        -4.42737
   C      -10.02289        22.88435        -5.26338
   C       -9.85076        23.07298        -6.60962
   C      -10.58988        23.99570        -7.37845
   N      -11.16585        24.72161        -8.05618
   C       -8.89718        22.39321        -7.39612
   N       -8.13264        21.88501        -8.08576
   C      -10.93082        23.62792        -4.40043
   C      -10.70719        23.22792        -3.05161
   C       -9.65686        22.19729        -3.00615
   O       -9.28399        21.57929        -2.03430
   C      -11.41636        23.76098        -2.01431
   C      -12.39708        24.74193        -2.28280
   C      -12.63162        25.14301        -3.62993
   C      -11.88435        24.56981        -4.68422
   C      -13.61843        26.11666        -3.88614
   C      -14.33836        26.67002        -2.86245
   C      -14.10538        26.27564        -1.53646
   C      -13.15490        25.33269        -1.25276
   H        7.46095         5.03223         6.34991
   H        7.10929         9.63743         4.46301
   H        8.54478        10.46687         6.23558
   H        9.90054        10.07315         8.25352
   H       10.09683         7.80590         9.19559
   H        8.93613         5.91351         8.12848
   H        3.90290         4.62758         2.40902
   H       -5.18415        10.45267         0.46838
   H       -3.58129         9.67983         0.44254
   H       -4.89464         9.02501        -0.56464
   H       -6.20751        11.39341        -2.41683
   H       -4.79939        11.69163        -3.46298
   H       -6.27906        12.67243        -3.65549
   H       -8.54835        20.60470        -5.87731
   H      -11.22730        23.44134        -1.00030
   H      -12.09046        24.88682        -5.69434
   H      -13.79310        26.41824        -4.90850
   H      -15.09149        27.41557        -3.06894
   H      -14.68296        26.72230        -0.74099
   H      -12.97098        25.02487        -0.23384
*
