# ORCA input file
# SCF done       -165.814198134968          0.000580817428
! CAM-B3LYP def2-SVP def2/J RIJCOSX Grid4 TightSCF
%maxcore 5000
%tddft
    Mode sTDDFT
    Ethresh 5.0
    maxcore 5000
end

%pal
  nprocs 6
  end
* xyz 0 1
   C        1.10212         1.33782        -1.51469
   C       -0.14687         1.66389        -1.97963
   C       -0.59187         1.39437        -3.28921
   N       -0.99416         1.21955        -4.35047
   C       -1.16286         2.22655        -1.18375
   N       -2.05220         2.63396        -0.58170
   C        2.07715         0.51386        -2.22409
   C        3.03712         0.03537        -1.28434
   C        4.05023        -0.80075        -1.65404
   C        4.15598        -1.20042        -3.00553
   C        3.20989        -0.71374        -3.95308
   C        2.16938         0.15081        -3.54085
   C        3.32762        -1.11793        -5.29838
   C        4.32824        -1.96518        -5.69008
   C        5.25867        -2.44448        -4.75611
   C        5.17440        -2.07001        -3.44245
   C        2.73252         0.59120         0.04636
   O        3.29817         0.37502         1.09469
   C        1.60284         1.53421        -0.17270
   C        1.28637         2.43491         0.79977
   C        0.47511         3.59077         0.72867
   C        0.47078         4.47525        -0.32180
   C       -0.42210         5.57053        -0.21628
   C       -1.16667         5.61184         0.94146
  Si       -0.71384         4.20093         2.08055
   C       -2.15733         6.57192         1.24349
   C       -2.80723         6.47953         2.49999
   C       -3.84550         7.37055         2.93502
   N       -4.39583         7.17830         4.15042
   C       -3.98186         6.20553         4.89564
   C       -2.94861         5.33289         4.47268
   N       -2.39681         5.48789         3.31179
   F       -2.50815         4.34512         5.24650
   F       -4.55659         6.05129         6.08622
   C       -4.28614         8.44053         2.11204
   C       -3.62364         8.54014         0.86281
   C       -2.59091         7.63859         0.42112
   N       -2.14609         7.96092        -0.79412
   S       -2.93692         9.24992        -1.32666
   N       -3.88496         9.47665        -0.04645
   C       -5.28509         9.40104         2.40384
   C       -6.07671         9.43460         3.53844
   C       -6.98741        10.51068         3.63069
   C       -6.96972        11.41558         2.57934
  Si       -5.72843        10.83890         1.28638
   C       -7.76666        12.56999         2.42469
   C       -8.63869        13.24695         3.24554
   C       -9.36605        14.43060         2.81442
   C       -9.43504        14.95115         1.54487
   C      -10.16634        16.10962         1.20760
   N      -10.72901        17.04763         0.85736
   C       -8.82952        14.43629         0.37962
   N       -8.40017        14.10624        -0.63461
   C      -10.07182        14.97776         3.96863
   C       -9.82544        14.13170         5.08416
   C       -8.95073        13.01817         4.67807
   O       -8.57853        12.12246         5.40901
   C      -10.36057        14.37759         6.31518
   C      -11.18741        15.50931         6.49182
   C      -11.43802        16.36550         5.38139
   C      -10.86743        16.08298         4.11854
   C      -12.26454        17.49231         5.56700
   C      -12.81833        17.76104         6.78915
   C      -12.57057        16.91692         7.88182
   C      -11.77224        15.81487         7.73621
   H        4.76130        -1.15714        -0.92362
   H        1.47241         0.51025        -4.28170
   H        2.60676        -0.74917        -6.01330
   H        4.40766        -2.27172        -6.72232
   H        6.04219        -3.11197        -5.08237
   H        5.88760        -2.43611        -2.71843
   H        1.73741         2.22794         1.76691
   H        1.13586         4.38408        -1.17053
   H       -0.50813         6.30778        -0.99908
   H       -1.69146         3.15124         2.31724
   H        0.12909         4.60747         3.20452
   H       -6.01842         8.69267         4.31712
   H       -7.64260        10.59988         4.48170
   H       -4.66306        11.82274         1.11350
   H       -6.42415        10.46241         0.06115
   H       -7.63423        13.02117         1.44832
   H      -10.15653        13.71491         7.14320
   H      -11.07695        16.75487         3.30200
   H      -12.45313        18.13906         4.72259
   H      -13.45110        18.62605         6.92063
   H      -13.01548        17.14399         8.83918
   H      -11.57778        15.16073         8.57367
*
