# ORCA input file
# SCF done       -191.638179361371          0.000824418173
! CAM-B3LYP def2-SVP def2/J RIJCOSX Grid4 TightSCF
%maxcore 5000
%tddft
    Mode sTDDFT
    Ethresh 5.0
    maxcore 5000
end

%pal
  nprocs 6
  end
* xyz 0 1
   C       -5.97166        -2.29316         3.83003
   O       -5.76522        -3.49101         3.87592
   C       -5.74472        -1.32748         4.92592
   C       -6.10410        -0.03896         4.49412
   C       -5.96593         1.03376         5.36298
   C       -5.47823         0.80118         6.64070
   C       -5.13447        -0.48157         7.04515
   C       -5.26053        -1.57121         6.19368
  Br       -4.47584        -0.75094         8.80657
   C       -6.58473        -0.12261         3.11480
   C       -7.06508         0.93469         2.38447
   C       -7.13675         2.25942         2.86456
   N       -7.22366         3.35638         3.19171
   C       -7.56595         0.86995         1.06774
   N       -7.98970         0.90908         0.00038
   C       -6.47978        -1.50756         2.70145
   C       -6.78052        -1.99629         1.45284
   C       -6.72970        -3.29886         0.94220
   C       -7.07911        -3.56700        -0.38966
   C       -6.97579        -4.90833        -0.69225
   C       -6.54391        -5.69771         0.41402
   S       -6.26155        -4.75358         1.82404
   C       -6.49126        -7.01060        -0.04150
   C       -6.88805        -6.99010        -1.40542
   N       -7.18798        -5.70925        -1.78471
   C       -7.58961        -5.26654        -3.09102
   C       -6.88473        -8.24282        -2.00258
   C       -6.49253        -9.23639        -1.11404
   S       -6.12011        -8.60874         0.48880
   C       -6.37526       -10.63464        -1.35210
   C       -6.62772       -11.27156        -2.59352
   C       -6.51359       -12.69917        -2.77039
   N       -6.76145       -13.22475        -3.98882
   C       -7.09943       -12.45829        -4.97268
   C       -7.21983       -11.06117        -4.79724
   N       -6.98816       -10.51309        -3.65016
   F       -7.57345       -10.25678        -5.80156
   F       -7.32524       -13.03811        -6.15306
   C       -6.14905       -13.57084        -1.71374
   C       -5.87857       -12.92903        -0.48485
   C       -5.98692       -11.50580        -0.30953
   N       -5.68447       -11.14128         0.93633
   S       -5.30454       -12.44002         1.79678
   N       -5.50234       -13.53464         0.64150
   C       -6.05648       -14.98748        -1.81957
   C       -6.30974       -15.78431        -2.92765
   C       -6.13178       -17.13230        -2.64580
   C       -5.73550       -17.38192        -1.30464
   S       -5.58422       -15.92039        -0.40185
   C       -5.61459       -18.76035        -1.17929
   C       -5.94209       -19.31676        -2.44796
   N       -6.23940       -18.31327        -3.32949
   C       -6.68444       -18.49329        -4.68358
   C       -5.90836       -20.70166        -2.47493
   C       -5.55821       -21.23352        -1.23737
   S       -5.22752       -19.98098        -0.03747
   C       -5.38520       -22.57272        -0.85054
   C       -5.79102       -23.73033        -1.45802
   C       -5.10910       -24.99678        -1.08659
   O       -4.35131       -25.17241        -0.16120
   C       -5.51890       -25.97547        -2.12004
   C       -6.46296       -25.38119        -2.97646
   C       -6.74840       -24.02847        -2.49490
   C       -7.87756       -23.31424        -2.81082
   C       -8.80625       -23.70304        -3.79682
   N       -9.58177       -23.95016        -4.60682
   C       -8.28994       -22.14611        -2.14092
   N       -8.69592       -21.20800        -1.61795
   C       -6.97067       -26.10264        -4.04609
   C       -6.53514       -27.40536        -4.23867
   C       -5.61356       -27.97791        -3.37226
   C       -5.08671       -27.27288        -2.29770
  Br       -5.05809       -29.77047        -3.66835
   H       -6.22440         2.03837         5.07212
   H       -5.36473         1.62533         7.32809
   H       -4.99426        -2.57066         6.50074
   H       -7.11321        -1.27044         0.72056
   H       -7.38763        -2.79086        -1.06680
   H       -7.90211        -6.12652        -3.67912
   H       -6.76457        -4.76561        -3.60518
   H       -8.42440        -4.56931        -3.00674
   H       -7.14458        -8.45781        -3.02015
   H       -6.60965       -15.37075        -3.87012
   H       -5.95475       -19.07928        -5.24637
   H       -6.79615       -17.51948        -5.15401
   H       -7.64571       -19.01301        -4.70560
   H       -6.08100       -21.30486        -3.34754
   H       -4.77776       -22.72847         0.03658
   H       -7.68308       -25.67404        -4.73210
   H       -6.91638       -27.98102        -5.06805
   H       -4.36920       -27.71392        -1.62340
*
