# ORCA input file
# SCF done       -193.175805888154          0.000811337542
! CAM-B3LYP def2-SVP def2/J RIJCOSX Grid4 TightSCF
%maxcore 5000
%tddft
    Mode sTDDFT
    Ethresh 5.0
    maxcore 5000
end

%pal
  nprocs 6
  end
* xyz 0 1
   C        9.43249        22.38439         5.37170
   C        8.32272        23.04360         5.82290
   F        8.46048        24.24611         6.41164
   C        7.03162        22.51420         5.69784
   C        6.87257        21.29334         5.10272
   C        7.98209        20.57013         4.62030
   C        9.28678        21.12664         4.75600
   C       10.41617        20.42183         4.27484
   C       10.24283        19.20096         3.68375
   C        8.93707        18.64307         3.56386
   C        7.83033        19.30371         4.01075
   C        9.03712        17.31016         2.93662
   O        8.13400        16.56040         2.63220
   C       10.49012        17.05270         2.79741
   C       11.19895        18.26932         3.08377
   C       12.47424        18.59643         2.68391
   C       13.09263        19.82944         2.96744
   N       13.65374        20.80702         3.18793
   C       13.27074        17.79015         1.84759
   N       13.93947        17.19471         1.12802
   C       10.92978        15.76967         2.55720
   C       12.20023        15.24944         2.78189
   C       12.56596        13.95630         2.46255
   C       13.82500        13.35856         2.69130
   C       13.91296        12.06471         2.26568
   C       12.72646        11.58142         1.67758
   S       11.49516        12.82195         1.67450
   C       12.48879        10.32031         1.15255
   C       13.38245         9.23503         1.05619
   C       12.83229         8.12351         0.48800
   C       11.47930         8.26954         0.09768
   S       10.93154         9.89015         0.48797
   C       10.70394         7.23108        -0.38039
   C        9.36136         7.19491        -0.77170
   S        8.54469         5.65610        -0.63289
   C        7.04379         6.41431        -1.04326
   N        5.89342         5.61290        -1.06093
   O        4.81622         6.16288        -1.20113
   O        6.05505         4.41531        -0.91305
   C        7.15350         7.74597        -1.33031
   C        8.48137         8.21611        -1.22396
   C        8.95227         9.47198        -1.67602
   C        8.23112        10.59984        -1.96412
   C        8.77730        11.79288        -2.51328
   C        7.85997        12.75876        -2.78394
   C        6.53399        12.38599        -2.45932
   S        6.50725        10.80004        -1.73067
   C        5.35679        13.04127        -2.76055
   C        5.15808        14.20341        -3.54038
   C        3.85372        14.42388        -3.85811
   C        2.95278        13.44282        -3.36250
   S        3.81830        12.31220        -2.35758
   C        1.59875        13.41165        -3.62473
   C        0.62722        12.46870        -3.27593
   C        0.67418        11.16000        -2.84616
   C       -0.53139        10.63912        -2.13910
   O       -1.61749        11.17219        -2.07892
   C       -0.10010         9.38297        -1.50344
   C       -0.79175         8.57140        -0.65270
   C       -0.15874         7.41763        -0.13789
   C        1.18161         7.12745        -0.52497
   C        1.81238         5.98248        -0.00273
   C        1.12690         5.17789         0.86462
   C       -0.19248         5.44366         1.25527
   C       -0.82065         6.55012         0.75408
   F        1.72570         4.08618         1.37697
   C        1.87102         7.97911        -1.42290
   C        1.23735         9.09244        -1.90269
   C        1.66881        10.12706        -2.84081
   C        2.75117        10.03034        -3.68939
   C        2.92539        10.88590        -4.79322
   N        3.07754        11.56086        -5.71006
   C        3.78248         9.08043        -3.57750
   N        4.70812         8.40278        -3.51029
   H       10.41144        22.82409         5.48231
   H        6.19334        23.07960         6.07293
   H        5.88760        20.86443         4.99494
   H       11.39187        20.86470         4.39728
   H        6.84928        18.86559         3.90363
   H       10.15697        15.07599         2.23806
   H       12.95381        15.85800         3.26033
   H       14.62648        13.90362         3.15664
   H       14.79248        11.45446         2.36304
   H       14.39763         9.29696         1.40322
   H       13.35997         7.19888         0.33469
   H       11.18915         6.26207        -0.34230
   H        6.31227         8.31789        -1.67946
   H       10.01397         9.53506        -1.86950
   H        9.83144        11.88397        -2.70614
   H        8.09092        13.71492        -3.21721
   H        5.97799        14.81241        -3.87500
   H        3.50716        15.23126        -4.47793
   H        1.22429        14.28943        -4.13826
   H       -0.39159        12.85090        -3.29527
   H       -1.80777         8.80703        -0.37297
   H        2.82511         5.75435        -0.29449
   H       -0.68341         4.77145         1.94130
   H       -1.83736         6.77575         1.03945
   H        2.88481         7.72308        -1.68901
*
