# ORCA input file
# SCF done       -200.667643788312          0.000835958484
! CAM-B3LYP def2-SVP def2/J RIJCOSX Grid4 TightSCF
%maxcore 5000
%tddft
    Mode sTDDFT
    Ethresh 5.0
    maxcore 5000
end

%pal
  nprocs 6
  end
* xyz 0 1
   C        7.87418        -5.34674         8.24798
   C        7.62552        -6.06094         9.38711
   F        7.40438        -5.40824        10.54224
   C        7.59212        -7.46190         9.40357
   C        7.81657        -8.14240         8.23917
   C        8.07965        -7.45652         7.03575
   C        8.10658        -6.03125         7.03950
   C        8.35989        -5.32052         5.84258
   C        8.58495        -6.01553         4.68625
   C        8.57398        -7.44067         4.69139
   C        8.32197        -8.15106         5.82910
   C        8.88604        -7.93446         3.33632
   O        8.91861        -9.07978         2.94670
   C        9.22451        -6.71818         2.54886
   C        8.83358        -5.56304         3.31972
   C        8.48165        -4.33534         2.81671
   C        8.45300        -4.05467         1.43665
   N        8.38232        -3.82058         0.31455
   C        8.02524        -3.26410         3.60839
   N        7.67686        -2.35453         4.21622
   C        9.89131        -6.86446         1.36454
   C       10.70403        -5.95680         0.66696
   S       11.37046        -4.52446         1.37517
   C       12.29964        -4.11749        -0.02501
   C       12.11249        -5.08452        -1.03425
   C       11.21558        -6.12362        -0.63636
   C       10.89764        -7.16836        -1.52099
   C       11.47729        -7.18868        -2.75789
   F       11.19591        -8.17708        -3.61564
   C       12.38320        -6.17941        -3.14740
   F       12.94692        -6.24055        -4.36351
   C       12.70005        -5.14640        -2.31145
   C       13.06307        -2.92749         0.06797
   C       13.78891        -2.29142        -0.88405
   C       14.48940        -1.08117        -0.59879
   C       15.23896        -0.35722        -1.45225
   C       15.51730        -0.69915        -2.87804
   C       15.93274         0.88942        -0.95625
   N       17.31888         0.59424        -0.65922
   C       18.37998         0.84140        -1.45079
   C       18.41529         1.59385        -2.58315
   C       19.60509         1.84741        -3.30006
   S       21.12492         1.15211        -2.85999
   C       21.98912         1.97047        -4.13228
   C       21.10095         2.75762        -4.88905
   C       19.75369         2.68320        -4.42542
   C       18.74660         3.41263        -5.08185
   C       19.08096         4.18271        -6.15922
   F       18.12894         4.88059        -6.80105
   C       20.41436         4.25841        -6.61618
   F       20.69340         5.02578        -7.68004
   C       21.41467         3.56219        -5.99814
   C       23.37530         1.86344        -4.26391
   C       24.17014         1.02104        -3.53113
   C       25.56544         0.92487        -3.63539
   C       26.48287         1.80715        -4.15444
   C       27.81217         1.28339        -4.55563
   O       28.25653         0.17893        -4.32530
   C       28.44973         2.36902        -5.32648
   C       29.63409         2.36537        -6.00329
   C       30.03477         3.52965        -6.69763
   C       29.18842         4.67566        -6.68237
   C       29.58990         5.83136        -7.37971
   C       30.78129         5.83060        -8.05011
   C       31.62810         4.71475        -8.07626
   C       31.25182         3.58343        -7.40664
   F       31.16868         6.93590        -8.71469
   C       27.96706         4.65065        -5.96797
   C       27.60837         3.51707        -5.29168
   C       26.44777         3.21549        -4.45153
   C       25.64680         4.17255        -3.87202
   C       24.68686         3.91235        -2.87780
   N       23.90665         3.76898        -2.04654
   C       25.74087         5.55043        -4.14620
   N       25.75090         6.68146        -4.34792
   H        7.88795        -4.26828         8.27184
   H        7.39057        -7.97149        10.33239
   H        7.79600        -9.22173         8.22674
   H        8.38050        -4.24245         5.87276
   H        8.30816        -9.23048         5.81049
   H        9.86541        -7.87312         0.96312
   H       10.20721        -7.94748        -1.24352
   H       13.40243        -4.40792        -2.65316
   H       13.02504        -2.46603         1.04889
   H       13.83504        -2.67069        -1.88969
   H       14.38164        -0.71585         0.41593
   H       15.26864        -1.72810        -3.11493
   H       16.57076        -0.53554        -3.10315
   H       14.93697        -0.04760        -3.53293
   H       15.45704         1.25478        -0.04147
   H       15.89132         1.67792        -1.70713
   H       17.45683        -0.05099         0.10290
   H       19.30822         0.41162        -1.09645
   H       17.52119         2.05754        -2.96877
   H       17.72016         3.37873        -4.75616
   H       22.42280         3.64008        -6.37040
   H       23.83014         2.47295        -5.03327
   H       23.68273         0.31965        -2.86568
   H       26.00433        -0.01601        -3.31534
   H       30.26033         1.48582        -6.00877
   H       28.96438         6.71038        -7.37784
   H       32.55629         4.77239        -8.62239
   H       31.88759         2.71076        -7.41212
   H       27.34426         5.53095        -5.98144
*
