# ORCA input file
# SCF done       -252.262857464097          0.000470957318
! CAM-B3LYP def2-SVP def2/J RIJCOSX Grid4 TightSCF
%maxcore 5000
%tddft
    Mode sTDDFT
    Ethresh 5.0
    maxcore 5000
end

%pal
  nprocs 6
  end
* xyz 0 1
   C       -1.14988        -0.79483         0.15767
   C       -1.16067        -1.69976         1.18684
   C       -0.32676        -2.83562         1.24820
   N        0.32735        -3.77317         1.35406
   C       -2.01692        -1.64713         2.30718
   N       -2.68480        -1.68639         3.24073
   C       -0.33315        -0.88880        -1.04491
   C       -0.70542         0.15386        -1.92658
   C       -0.11472         0.33488        -3.15344
   C        0.89163        -0.55974        -3.53082
   C        1.26003        -1.59798        -2.64203
   C        0.66405        -1.77898        -1.40048
   S        2.52770        -2.58549        -3.30431
   C        2.54260        -1.60553        -4.74659
   C        1.64690        -0.59013        -4.73506
  Br        3.74023        -2.01463        -6.13085
   C       -1.77862         0.96594        -1.31614
   O       -2.29271         1.94455        -1.81078
   C       -2.00285         0.37611         0.03017
   C       -2.69776         0.95374         1.04859
   C       -3.61037         2.05886         0.97796
   C       -3.67840         2.93355         2.07937
   C       -4.50073         4.02766         2.02157
   C       -5.31509         4.25020         0.89384
   C       -5.30991         3.35202        -0.16526
   C       -4.45521         2.27109        -0.12149
   C       -6.04725         5.47959         1.09251
   C       -5.68238         6.02316         2.33657
   C       -4.68991         5.12739         3.04005
   C       -5.26944         4.57701         4.35729
   C       -6.58238         3.82882         4.16056
   C       -3.36746         5.86269         3.32465
   C       -2.73147         6.44330         2.06722
   C       -6.19983         7.22561         2.74917
   C       -7.10031         7.92192         1.92707
   C       -7.47016         7.35283         0.70057
   C       -6.95445         6.14509         0.27893
   C       -7.56127         9.22120         2.36484
   C       -8.49103         9.98754         1.77041
   C       -8.87984        11.32406         2.16827
   C      -10.00336        11.90367         1.55755
   C      -10.36595        13.19539         1.85731
   C       -9.63339        13.92163         2.81115
   C       -8.53049        13.35839         3.43597
   C       -8.15755        12.07287         3.10504
   C      -10.22789        15.23092         2.95555
   C      -11.33943        15.31754         2.10110
   C      -11.53148        14.01856         1.33997
   C      -11.42515        14.33629        -0.16593
   C      -11.55002        13.15458        -1.11913
   C      -12.83087        13.28675         1.73652
   C      -14.13252        13.98952         1.37356
   C      -12.03606        16.49937         2.00423
   C      -11.64909        17.60858         2.77037
   C      -10.56370        17.48747         3.64487
   C       -9.84980        16.31121         3.73940
   C      -12.38453        18.84909         2.62382
   C      -11.91510        20.06886         2.92829
   C      -12.62747        21.31968         2.77071
   C      -14.02353        21.38033         2.65722
   C      -14.63933        22.59933         2.51462
   C      -13.88485        23.78511         2.46893
   C      -12.50274        23.73961         2.58611
   C      -11.89240        22.51271         2.74540
   C      -14.78943        24.90054         2.30993
   C      -16.10693        24.40755         2.27602
   C      -16.11512        22.90235         2.39969
   C      -16.73109        22.24367         1.15097
   C      -16.04156        22.66296        -0.14171
   C      -16.87907        22.44445         3.65623
   C      -16.32605        23.05314         4.93934
   C      -17.16685        25.26584         2.14175
   C      -16.93663        26.64764         2.00801
   C      -15.61582        27.12140         2.04111
   C      -14.54817        26.26386         2.19580
   C      -18.07179        27.50219         1.80740
   C      -18.05760        28.82440         1.50852
   C      -19.20909        29.63105         1.33408
   C      -20.50232        29.30261         1.04338
   C      -21.15411        28.10646         0.55781
   C      -20.61190        27.12813        -0.23758
   C      -21.33398        26.02458        -0.73326
   N      -21.86423        25.09079        -1.14047
   C      -19.28402        27.13373        -0.70755
   N      -18.22231        27.09600        -1.14252
   C      -22.58042        28.23977         0.84856
   C      -22.83551        29.56533         1.27865
   C      -21.55975        30.30673         1.33776
   O      -21.39535        31.47436         1.61097
   C      -24.09614        30.01074         1.59246
   C      -25.15376        29.10072         1.48981
   C      -24.88639        27.77453         1.07544
   C      -23.61221        27.32646         0.74831
   S      -26.33421        26.81442         1.03207
   C      -27.26690        28.19034         1.55925
   C      -26.53418        29.31096         1.75963
  Br      -29.11935        28.01533         1.79728
   H       -0.42147         1.14080        -3.80163
   H        0.98466        -2.58085        -0.75672
   H        1.52256         0.11003        -5.54087
   H       -2.51218         0.58394         2.05095
   H       -3.04844         2.75260         2.93873
   H       -5.95807         3.49961        -1.01546
   H       -4.45731         1.55842        -0.92943
   H       -5.42776         5.41172         5.04347
   H       -4.53512         3.90707         4.80937
   H       -7.33610         4.48191         3.72602
   H       -6.95154         3.46559         5.11677
   H       -6.44450         2.97603         3.49954
   H       -2.67211         5.16364         3.79415
   H       -3.56152         6.66718         4.03718
   H       -2.51214         5.65751         1.34765
   H       -1.80204         6.94954         2.31781
   H       -3.39858         7.16178         1.59601
   H       -5.91330         7.65207         3.70040
   H       -8.15917         7.87875         0.05821
   H       -7.24250         5.73133        -0.67598
   H       -7.07702         9.58375         3.26214
   H       -9.01913         9.60580         0.90621
   H      -10.57520        11.31093         0.85887
   H       -7.96803        13.92014         4.16701
   H       -7.28468        11.64436         3.57245
   H      -10.45809        14.81986        -0.33023
   H      -12.19648        15.06886        -0.40985
   H      -10.71487        12.47003        -1.00414
   H      -11.54336        13.51938        -2.14455
   H      -12.47839        12.61191        -0.96154
   H      -12.80322        13.13532         2.81930
   H      -12.81755        12.29871         1.27299
   H      -14.23262        14.92555         1.91543
   H      -14.97268        13.35342         1.64557
   H      -14.19298        14.18916         0.30695
   H      -12.86543        16.60676         1.32055
   H      -10.28443        18.32730         4.26270
   H       -9.00511        16.23536         4.40798
   H      -13.36781        18.75114         2.18179
   H      -10.89785        20.16786         3.28411
   H      -14.60766        20.47387         2.70499
   H      -11.91588        24.64561         2.55949
   H      -10.81700        22.46150         2.84143
   H      -17.78874        22.51045         1.09891
   H      -16.66592        21.15913         1.26263
   H      -16.12819        23.73634        -0.29453
   H      -16.50100        22.15934        -0.98893
   H      -14.98552        22.40247        -0.11653
   H      -16.82566        21.35568         3.72025
   H      -17.92995        22.72067         3.54666
   H      -15.28463        22.77216         5.07971
   H      -16.89582        22.70134         5.79635
   H      -16.38670        24.13892         4.90769
   H      -18.18110        24.89269         2.11369
   H      -15.42924        28.17998         1.95244
   H      -13.53910        26.64690         2.22322
   H      -19.03302        27.01773         1.93304
   H      -17.11424        29.34939         1.46024
   H      -19.06938        30.69233         1.52366
   H      -24.26219        31.02860         1.90845
   H      -23.45721        26.30500         0.44264
   H      -26.94732        30.24824         2.08481
*
