# ORCA input file
# SCF done       -213.481517765922          0.000981678493
! CAM-B3LYP def2-SVP def2/J RIJCOSX Grid4 TightSCF
%maxcore 5000
%tddft
    Mode sTDDFT
    Ethresh 5.0
    maxcore 5000
end

%pal
  nprocs 6
  end
* xyz 0 1
   C        3.63447         5.28994        -0.83124
   C        4.25837         6.45883        -0.48109
   C        5.63494         6.56584        -0.19031
   N        6.74703         6.71975         0.04740
   C        3.61735         7.70808        -0.35427
   N        3.14885         8.74886        -0.22782
   C        4.26445         3.97765        -0.89989
   C        3.28060         3.01524        -1.23686
   C        3.56322         1.67764        -1.36932
   C        4.88184         1.26631        -1.15008
   C        5.85995         2.23378        -0.81435
   C        5.57360         3.58740        -0.68662
   S        7.42186         1.50991        -0.58747
   C        6.75052        -0.06052        -0.93857
   C        5.42408        -0.04564        -1.21335
  Br        7.86287        -1.56877        -0.91092
   C        1.97971         3.68114        -1.40189
   O        0.94029         3.16995        -1.77126
   C        2.22507         5.11397        -1.13167
   C        1.31943         6.11732        -1.32856
   N       -0.02267         5.99607        -1.44492
   C       -0.82501         4.99634        -0.95372
   S       -0.39941         4.18017         0.51332
   C       -1.82155         3.20905         0.37535
   N       -2.03228         2.22883         1.35680
   O       -3.02832         1.53980         1.26705
   O       -1.18884         2.14828         2.23204
   C       -2.58008         3.50946        -0.72137
   C       -2.04108         4.56553        -1.48561
   C       -2.70409         5.03163        -2.68007
   C       -2.69605         6.28161        -3.18042
   C       -3.37832         6.69984        -4.35894
   S       -3.36744         8.39139        -4.78794
   C       -4.32448         8.13841        -6.22223
   C       -4.62156         6.79380        -6.34160
   C       -4.09688         5.99248        -5.30236
   S       -4.43383         4.28551        -5.39714
   C       -5.35834         4.35282        -6.88849
   S       -6.00159         3.03066        -7.58070
   S       -5.53263         5.95832        -7.57114
   C       -4.66543         9.25697        -7.03150
   C       -5.37102         9.19697        -8.17975
   C       -5.73819        10.31223        -9.01501
   C       -5.49182        11.64667        -8.65409
   C       -5.87003        12.65816        -9.50048
   C       -6.49918        12.37368       -10.72725
   C       -6.75176        11.05904       -11.09531
   C       -6.37417        10.04679       -10.23797
   C       -6.77595        13.62202       -11.40220
   C       -6.32371        14.67691       -10.58805
   C       -5.70951        14.14800        -9.31547
   C       -6.47280        14.64926        -8.07505
   C       -7.95595        14.30044        -8.11011
   C       -4.22790        14.55567        -9.20438
   C       -3.39203        14.08062       -10.38641
   C       -6.44899        15.98127       -10.99017
   C       -7.03302        16.26481       -12.23712
   C       -7.46092        15.20130       -13.04919
   C       -7.34847        13.88914       -12.63995
   C       -7.16044        17.61479       -12.71179
   C       -7.08685        18.72521       -11.93576
   C       -7.11349        20.02617       -12.48118
   C       -6.94106        21.22563       -11.85361
   C       -6.57125        21.60952       -10.50778
   C       -5.84217        20.90331        -9.58442
   C       -5.47899        21.40796        -8.31613
   N       -5.15574        21.74048        -7.26595
   C       -5.26570        19.62834        -9.74515
   N       -4.73263        18.61026        -9.76488
   C       -6.95282        23.01272       -10.34159
   C       -7.34699        23.53624       -11.59800
   C       -7.29552        22.45999       -12.60435
   O       -7.52900        22.54076       -13.78938
   C       -7.72911        24.84408       -11.77096
   C       -7.73286        25.67688       -10.64726
   C       -7.35493        25.14203        -9.39276
   C       -6.96333        23.82020        -9.21963
   S       -7.44441        26.33768        -8.13519
   C       -7.97591        27.52471        -9.29665
   C       -8.08406        27.05185       -10.56105
  Br       -8.34023        29.27486        -8.72951
   H        2.79037         0.97029        -1.62562
   H        6.35408         4.28444        -0.43161
   H        4.85035        -0.92298        -1.44987
   H        1.67227         7.13475        -1.44156
   H       -0.49770         6.74204        -1.93552
   H       -3.49242         2.99292        -0.95924
   H       -3.30580         4.27961        -3.17098
   H       -2.19490         7.09068        -2.66496
   H       -4.30314        10.20333        -6.65640
   H       -5.69776         8.22918        -8.53728
   H       -5.01520        11.87787        -7.71437
   H       -7.23635        10.83097       -12.03266
   H       -6.56513         9.01873       -10.51031
   H       -6.35404        15.73243        -8.01076
   H       -6.01907        14.21071        -7.18406
   H       -8.43672        14.74672        -8.97797
   H       -8.44868        14.67337        -7.21530
   H       -8.09788        13.22273        -8.15649
   H       -3.81965        14.14026        -8.28070
   H       -4.17195        15.64327        -9.13782
   H       -3.41644        12.99566       -10.46916
   H       -2.35854        14.39297       -10.25883
   H       -3.76514        14.50507       -11.31558
   H       -6.05478        16.77956       -10.38109
   H       -7.90165        15.42591       -14.00995
   H       -7.68975        13.08558       -13.27511
   H       -7.30876        17.73810       -13.77814
   H       -7.01463        18.62165       -10.86561
   H       -7.34027        20.10822       -13.54034
   H       -8.01723        25.21284       -12.74284
   H       -6.69418        23.46214        -8.24016
   H       -8.39858        27.64624       -11.39934
*
