# ORCA input file
# SCF done       -206.098946239514          0.000995898597
! CAM-B3LYP def2-SVP def2/J RIJCOSX Grid4 TightSCF
%maxcore 5000
%tddft
    Mode sTDDFT
    Ethresh 5.0
    maxcore 5000
end

%pal
  nprocs 6
  end
* xyz 0 1
   C      -16.48588         7.60133        -3.31369
   C      -17.72386         7.03681        -3.14848
   C      -18.07437         5.75279        -3.61353
   N      -18.39923         4.71169        -3.97168
   C      -18.80377         7.66791        -2.49781
   N      -19.71501         8.13297        -1.97746
   C      -16.08282         8.92868        -2.85530
   C      -14.73250         9.15566        -3.22870
   C      -14.06757        10.32095        -2.93153
   C      -14.76452        11.30933        -2.22882
   C      -16.11031        11.07362        -1.85847
   C      -16.78417         9.89605        -2.16241
   S      -16.78035        12.42123        -0.99315
   C      -15.26533        13.27241        -1.13558
   C      -14.30556        12.58413        -1.79950
  Br      -15.09332        14.98730        -0.39713
   C      -14.22891         7.96975        -3.93174
   O      -13.10566         7.79816        -4.39558
   C      -15.33854         7.01183        -3.96513
   C      -15.19912         5.76586        -4.52663
   N      -14.03301         5.39655        -5.06735
   C      -13.72693         4.19392        -5.61485
   S      -14.89534         2.91768        -5.74110
   C      -13.67513         1.90547        -6.44593
   N      -14.03938         0.60051        -6.81223
   O      -13.17808        -0.10906        -7.29498
   O      -15.19557         0.27783        -6.61074
   C      -12.45570         2.51166        -6.57059
   C      -12.45794         3.84081        -6.09985
   C      -11.34430         4.74212        -6.09537
   C      -10.06805         4.40018        -6.37560
   C       -8.96613         5.30966        -6.34036
   C       -7.64996         4.81997        -6.50697
   C       -6.51186         5.67511        -6.43163
   N       -5.25919         5.16704        -6.52778
   C       -5.10889         3.88795        -6.73407
   C       -6.25283         3.03268        -6.86871
   N       -7.46173         3.50057        -6.73841
   C       -6.10091         1.57768        -7.15044
   C       -3.72118         3.35377        -6.82004
   C       -6.63148         7.06665        -6.24327
   C       -7.92758         7.57426        -6.07196
   C       -9.07998         6.69909        -6.11828
   N      -10.20641         7.38740        -5.91114
   S       -9.86611         8.92981        -5.67069
   N       -8.27202         8.84432        -5.82340
   N       -5.46795         7.78733        -6.14435
   C       -5.28524         9.12889        -6.17012
   S       -4.06595         9.82303        -5.14683
   C       -4.49471        11.40340        -5.72511
   N       -3.78557        12.50086        -5.21517
   O       -4.11647        13.60933        -5.58732
   O       -2.89419        12.25363        -4.42209
   C       -5.49642        11.38974        -6.65191
   C       -5.95780        10.08785        -6.94405
   C       -6.86978         9.74957        -7.98981
   C       -7.50000        10.63835        -8.79596
   C       -8.31831        10.22157        -9.87260
   C       -8.76535        10.97215       -10.91800
   C       -8.39628        12.29028       -11.38791
   C       -7.18504        12.91113       -11.21980
   C       -6.86815        14.17117       -11.77003
   N       -6.56860        15.19958       -12.18217
   C       -6.06725        12.32524       -10.58973
   N       -5.10979        11.88416       -10.13511
   C       -9.45182        12.73882       -12.29177
   C      -10.32979        11.65315       -12.54205
   C       -9.90190        10.48760       -11.74431
   O      -10.39198         9.38083       -11.72088
   C      -11.39586        11.75022       -13.40317
   C      -11.61195        12.97666       -14.04023
   C      -10.74014        14.05903       -13.77036
   C       -9.65821        13.96024       -12.90403
   S      -11.19405        15.48198       -14.65686
   C      -12.52606        14.61495       -15.37430
   C      -12.62973        13.32678       -14.96898
  Br      -13.65393        15.49216       -16.58866
   H      -13.04039        10.46537        -3.22798
   H      -17.80877         9.76441        -1.85756
   H      -13.31449        12.95939        -1.97795
   H      -16.00581         5.04432        -4.54410
   H      -13.29734         6.12454        -5.02088
   H      -11.60596         2.01101        -6.99621
   H      -11.54166         5.77187        -5.83665
   H       -9.79596         3.38241        -6.61243
   H       -5.57067         1.42789        -8.08970
   H       -7.08209         1.11683        -7.21450
   H       -5.52684         1.09493        -6.36114
   H       -3.00807         4.16314        -6.69207
   H       -3.55774         2.88039        -7.78688
   H       -3.55618         2.60324        -6.04852
   H       -4.66478         7.18602        -5.97467
   H       -5.84458        12.28888        -7.12458
   H       -6.97805         8.69688        -8.21231
   H       -7.39042        11.69790        -8.62357
   H       -8.68529         9.19992        -9.85176
   H      -12.04138        10.90499       -13.58344
   H       -9.02472        14.81337       -12.72644
   H      -13.39133        12.64996       -15.31073
*
