# ORCA input file
# SCF done       -146.182789609714          0.000321501374
! CAM-B3LYP def2-SVP def2/J RIJCOSX Grid4 TightSCF
%maxcore 5000
%tddft
    Mode sTDDFT
    Ethresh 5.0
    maxcore 5000
end

%pal
  nprocs 6
  end
* xyz 0 1
   C        9.68652       -14.44523         8.04610
   C        9.84595       -14.21881         6.73521
   C       10.80789       -14.81310         5.85125
   C       10.72588       -14.39163         4.57026
   C        9.70013       -13.43496         4.33030
   S        8.83707       -13.08803         5.81782
   C        9.37092       -12.84016         3.13749
   C        9.97444       -13.03325         1.86800
   C        9.40778       -12.31003         0.86969
   C        8.31678       -11.49685         1.27953
   S        8.05526       -11.68954         3.01037
   C        7.49801       -10.76597         0.46469
   C        6.40066        -9.98930         0.91149
   S        4.86258       -10.20518         0.10525
   C        4.02946        -9.31210         1.32194
   C        4.90331        -8.77871         2.27371
   C        6.26397        -9.14566         2.01678
   C        7.28198        -8.52357         2.78638
   S        8.97121        -8.67881         2.30493
   C        6.92987        -7.72021         3.84168
   C        5.58414        -7.46205         4.14840
   C        4.57715        -7.95295         3.36820
   N        2.67492        -9.18526         1.38577
   C        1.70856        -9.72774         0.61470
   S        2.03749       -10.60269        -0.84259
   C        0.34348       -10.98843        -0.97210
   N       -0.04909       -11.74675        -2.06683
   O       -1.23183       -12.03126        -2.17768
   O        0.83207       -12.07850        -2.85024
   C       -0.41173       -10.47854         0.05410
   C        0.34309        -9.72637         0.96527
   C       -0.19035        -9.10838         2.14777
   C        0.27588        -7.96143         2.70320
   C       -0.15399        -7.43809         3.94400
   S       -1.15596        -8.41574         4.97426
   C       -1.24988        -7.19814         6.20337
   C       -0.53191        -6.04395         5.80767
   C        0.12275        -6.19554         4.54496
   C        0.93525        -5.12968         4.08444
   S        1.87364        -5.25344         2.58558
   C        1.02831        -3.97553         4.82588
   C        0.34769        -3.83098         6.03912
   C       -0.41433        -4.85300         6.53736
   C       -1.90875        -7.40102         7.41482
   C       -2.46793        -8.57336         7.87213
   C       -3.06670        -8.76349         9.14115
   C       -3.46817       -10.04007         9.39008
   C       -3.21464       -10.93573         8.32567
   S       -2.46913       -10.08359         6.98458
   C       -3.45605       -12.28959         8.27066
   C       -4.02964       -13.11023         9.28010
   C       -4.11800       -14.41871         8.95100
   C       -3.61873       -14.73602         7.64420
   S       -3.03760       -13.25326         6.86937
   C       -3.56809       -15.93753         7.05233
   H       10.32006       -15.14369         8.56367
   H        8.92777       -13.94385         8.61830
   H       11.51843       -15.53202         6.21912
   H       11.36661       -14.73402         3.77695
   H       10.80259       -13.70569         1.73283
   H        9.72816       -12.32867        -0.15704
   H        7.60329       -10.90865        -0.60322
   H        9.43104        -7.80661         3.20310
   H        7.69839        -7.25062         4.43825
   H        5.35852        -6.82941         4.99305
   H        3.54992        -7.68994         3.57167
   H        2.33089        -8.75122         2.23911
   H       -1.47307       -10.63277         0.12436
   H       -1.02966        -9.61293         2.60815
   H        0.97726        -7.35966         2.14477
   H        2.43311        -4.04828         2.68221
   H        1.64135        -3.15842         4.47212
   H        0.44300        -2.90337         6.58208
   H       -0.92378        -4.74472         7.48144
   H       -1.95175        -6.55912         8.09248
   H       -3.16926        -7.94868         9.83651
   H       -3.92756       -10.36130        10.30751
   H       -4.35351       -12.69743        10.21916
   H       -4.51888       -15.18830         9.58650
   H       -3.92909       -16.81501         7.55897
   H       -3.16906       -16.06345         6.06270
*
