# ORCA input file
# SCF done       -258.702676716791          0.000876455494
! CAM-B3LYP def2-SVP def2/J RIJCOSX Grid4 TightSCF
%maxcore 5000
%tddft
    Mode sTDDFT
    Ethresh 5.0
    maxcore 5000
end

%pal
  nprocs 6
  end
* xyz 0 1
   C        6.37775        -2.43564        -0.59916
   C        7.40467        -1.52951        -0.58546
   C        8.77603        -1.85630        -0.20189
   O        9.15037        -2.95880         0.12651
   C        9.68094        -0.67762        -0.26324
   C        9.22908         0.63102        -0.58983
   C       10.25677         1.54440        -0.56485
   S       11.77152         0.84307        -0.15545
   C       11.02937        -0.69927        -0.00390
   C       11.87204        -1.87924         0.37791
   F       11.85803        -2.84175        -0.54539
   F       13.15846        -1.50876         0.52066
   F       11.50582        -2.41734         1.54246
   C       10.17795         3.01202        -0.83808
   F        9.67196         3.29708        -2.04478
   F        9.43408         3.66635         0.06432
   F       11.39354         3.57933        -0.79719
   C        7.81792         0.95014        -0.91281
   O        7.43303         2.09780        -1.05757
   C        6.97477        -0.22711        -0.98583
   C        5.62693        -0.20009        -1.31046
   S        4.89185        -1.74838        -1.07815
   C        4.91615         0.92996        -1.83791
   C        3.80709         1.57753        -1.31772
   N        3.09073         1.21237        -0.16778
   O        3.40207         0.17178         0.39520
   O        2.20305         1.95476         0.20868
   C        3.53656         2.75645        -2.09446
   C        4.48091         2.85131        -3.06297
   C        5.37151         1.72258        -2.96230
   C        6.35725         1.36065        -3.87278
   C        6.74390         0.05187        -4.24171
   C        7.48028         0.11541        -5.40285
   C        7.64338         1.47070        -5.78072
   N        8.39864         1.88320        -6.88583
   O        8.49507         3.08088        -7.11387
   O        8.91541         1.01487        -7.56930
   C        7.02028         2.28659        -4.81515
   C        7.16021         3.65647        -4.63901
   C        7.00628         4.27710        -3.40858
   C        7.07143         5.64051        -3.19243
   S        7.09317         6.81289        -4.47530
   C        7.15194         8.15661        -3.37621
   C        7.11911         7.70935        -2.02590
   C        7.07816         6.29294        -1.92392
   C        7.04659         5.66744        -0.67810
   C        7.04132         6.43002         0.47457
   C        7.00656         5.77385         1.81424
   C        7.02645         7.82992         0.36809
   C        7.05576         8.46753        -0.84832
   C        7.17572         9.44062        -3.93314
   C        7.53417        10.61381        -3.31808
   C        7.39300        11.88020        -3.91473
   C        6.72267        12.21488        -5.08510
   C        6.73697        13.61907        -5.24850
   C        7.50516        14.15856        -4.10884
   C        7.88114        13.11683        -3.32309
   C        7.80365        15.50299        -3.86010
   N        8.06416        16.59709        -3.62608
   C        6.09680        14.35494        -6.22856
   C        6.01993        15.76597        -6.34737
   C        5.19454        16.09166        -7.40840
   C        4.74165        14.84752        -8.01808
   C        5.27833        13.80762        -7.32909
   C        5.07830        12.45479        -7.62597
   N        4.90377        11.34846        -7.88268
   C        4.83209        17.40082        -7.80280
   C        3.92621        17.68349        -8.77639
   C        3.53466        18.98975        -9.14708
   C        2.56338        19.34291       -10.08334
   C        1.77194        18.39390       -10.85550
   O        1.87512        17.18471       -10.79017
   C        0.79301        19.05013       -11.75794
   C        0.64973        20.46045       -11.87652
   C       -0.32888        20.79948       -12.78024
   S       -1.08636        19.43393       -13.49447
   C       -0.08518        18.38095       -12.57729
   C       -0.24955        16.89990       -12.73814
   F        0.85247        16.30361       -13.19881
   F       -0.60043        16.29241       -11.60185
   F       -1.22397        16.62974       -13.62603
   C       -0.77444        22.17497       -13.17470
   F       -1.26393        22.87117       -12.14589
   F        0.20317        22.89442       -13.72969
   F       -1.75982        22.10695       -14.08834
   C        1.46948        21.42075       -11.10051
   O        1.36190        22.62195       -11.19884
   C        2.41616        20.75555       -10.20131
   C        3.26209        21.44304        -9.37124
   S        4.24550        20.41870        -8.43133
   H        6.44500        -3.47289        -0.33347
   H        2.71225         3.41602        -1.90499
   H        4.51918         3.58087        -3.84786
   H        6.41273        -0.85016        -3.76420
   H        7.87755        -0.71230        -5.96066
   H        7.51397         4.23429        -5.48500
   H        6.89767         3.65196        -2.53378
   H        7.02905         4.59154        -0.61092
   H        7.49892         6.38876         2.56343
   H        7.48788         4.80052         1.77274
   H        5.97200         5.62705         2.12618
   H        6.98318         8.41920         1.27217
   H        7.00495         9.54248        -0.88813
   H        6.91432         9.48897        -4.98284
   H        7.97589        10.59140        -2.33230
   H        6.23176        11.53283        -5.74934
   H        8.45157        13.17653        -2.41422
   H        6.50782        16.46581        -5.69742
   H        4.09719        14.77165        -8.87330
   H        5.30185        18.21415        -7.26149
   H        3.43068        16.88891        -9.31623
   H        3.33563        22.50976        -9.28314
*
