# ORCA input file
# SCF done       -157.471456450008          0.000770412563
! CAM-B3LYP def2-SVP def2/J RIJCOSX Grid4 TightSCF
%maxcore 5000
%tddft
    Mode sTDDFT
    Ethresh 5.0
    maxcore 5000
end

%pal
  nprocs 6
  end
* xyz 0 1
   C       -0.74498         1.05953        -3.28418
   C       -0.02836         2.17196        -3.65060
   C       -0.53690         3.43487        -3.96507
   N       -0.95513         4.47113        -4.22430
   S        1.67899         1.85990        -3.70126
   C        1.43403         0.21072        -3.21406
   C        0.07573        -0.05624        -3.03622
   C       -0.46513        -1.30941        -2.69497
   N       -0.95882        -2.31304        -2.44364
   C        2.54534        -0.65796        -3.05071
   C        2.56930        -1.93613        -2.53610
   C        3.90290        -2.43113        -2.60375
   C        4.72229        -1.35015        -3.17819
   C        3.90469        -0.29447        -3.42536
   C        6.11429        -1.33886        -3.33863
   N        7.25460        -1.26174        -3.44785
   C        4.36023        -3.67530        -2.22522
   C        5.63490        -4.23487        -2.49241
   C        5.71171        -5.49698        -1.92466
   C        4.44041        -5.75491        -1.25882
   C        3.62132        -4.68888        -1.45370
   C        2.33055        -4.56577        -0.92326
   N        1.28737        -4.49464        -0.44956
   C        6.85688        -6.32262        -2.03334
   N        7.17757        -7.43003        -1.28950
   C        6.47938        -7.98546        -0.15264
   C        6.51114        -7.05297         1.05390
   C        8.42995        -7.96321        -1.65684
   O        8.92831        -8.92836        -1.11763
   C        8.87985        -7.11966        -2.74278
   C        7.90536        -6.12767        -2.94897
   C        8.32026        -5.32225        -4.08503
   O        7.79845        -4.39967        -4.66834
   N        9.55755        -5.87760        -4.46577
   C       10.33190        -5.28714        -5.53168
   C       11.42006        -4.36264        -4.99198
   C        9.91359        -6.94274        -3.67902
   C       11.10486        -7.67713        -3.83669
   C       11.42763        -8.74375        -3.04540
   C       12.61383        -9.49924        -3.16296
   C       12.94906       -10.58636        -2.37670
   C       14.22843       -11.07345        -2.76510
   C       14.66919       -10.21243        -3.88176
   C       13.70384        -9.28739        -4.11023
   C       15.84163       -10.34217        -4.63776
   N       16.77340       -10.42811        -5.30324
   C       14.93603       -12.11747        -2.21845
   C       16.26709       -12.52783        -2.54805
   C       16.59689       -13.61871        -1.78773
   C       15.46144       -13.94730        -0.93981
   C       14.47217       -13.04412        -1.17298
   C       13.22971       -13.03142        -0.52885
   N       12.22177       -13.04308         0.02148
   C       17.84968       -14.32496        -1.79398
   C       19.06551       -13.74405        -2.11824
   C       19.31546       -12.39779        -2.39626
   N       19.54710       -11.29129        -2.59353
   S       20.38658       -14.86874        -2.04025
   C       19.32384       -16.12282        -1.58145
   C       18.02135       -15.70994        -1.47804
   C       16.98074       -16.59811        -1.14349
   N       16.14862       -17.33950        -0.87600
   H       -1.81727         1.04417        -3.19900
   H        1.72939        -2.49222        -2.16911
   H        4.19308         0.65847        -3.83031
   H        6.40140        -3.75873        -3.07045
   H        4.16748        -6.64614        -0.72861
   H        7.00867        -8.91272         0.08726
   H        5.45533        -8.24169        -0.43390
   H        7.54019        -6.86017         1.34767
   H        5.99463        -7.51895         1.88828
   H        6.03011        -6.10227         0.83385
   H        9.62596        -4.70690        -6.13218
   H       10.75807        -6.07764        -6.15518
   H       10.96828        -3.55405        -4.42295
   H       11.98009        -3.93363        -5.81799
   H       12.10776        -4.90172        -4.34365
   H       11.77871        -7.36815        -4.62231
   H       10.74267        -9.04976        -2.26518
   H       12.34950       -10.98957        -1.58406
   H       13.73619        -8.52679        -4.86779
   H       16.88728       -12.05207        -3.28149
   H       15.42957       -14.75595        -0.23411
   H       19.69946       -17.11304        -1.40945
*
