# ORCA input file
# SCF done       -175.523522075013          0.000901901305
! CAM-B3LYP def2-SVP def2/J RIJCOSX Grid4 TightSCF
%maxcore 5000
%tddft
    Mode sTDDFT
    Ethresh 5.0
    maxcore 5000
end

%pal
  nprocs 6
  end
* xyz 0 1
   C        0.78568        -1.77623         1.72975
   C        0.99238        -1.35362         0.48505
   C        0.40089        -0.07970         0.13397
   C       -0.29313         0.52862         1.11479
   S       -0.21742        -0.54510         2.57554
   O       -1.51836        -1.06686         2.89085
   O        0.51723         0.08829         3.63497
   C       -0.99800         1.75131         1.19419
   C       -1.11680         2.64826         0.18461
   C       -1.81020         3.87861         0.27648
   S       -2.64105         4.44199         1.70532
   C       -3.13411         5.94213         0.94546
   C       -2.66614         5.98016        -0.36651
   C       -1.93376         4.82490        -0.72582
   C       -1.46326         4.89755        -2.10697
   O       -0.80791         4.08419        -2.71310
   C       -1.97271         6.22666        -2.64172
   C       -2.72493         6.90031        -1.50150
   O       -3.24910         7.98881        -1.57109
   C       -3.88713         6.85407         1.72002
   C       -4.29775         8.07673         1.28480
   C       -5.04251         8.95928         2.10119
   N       -5.43253        10.21511         1.70280
   C       -5.10961        10.85912         0.45209
   C       -3.68165        11.39815         0.44366
   C       -6.16556        10.88619         2.70338
   O       -6.61293        12.00400         2.57476
   C       -6.22090         9.93269         3.79279
   C       -5.52990         8.76748         3.39667
   C       -5.61439         7.82247         4.48727
   O       -5.16937         6.69826         4.61911
   N       -6.37597         8.47659         5.47370
   C       -6.57460         7.83029         6.75093
   C       -5.71364         8.45109         7.84721
   C       -6.73965         9.74551         5.07499
   C       -7.49850        10.72999         5.75533
   C       -8.18909        10.60587         6.91763
   C       -8.91549        11.65888         7.52662
   S       -8.86298        13.29229         6.93460
   C       -9.72307        11.55169         8.66216
   C       -9.94859        10.27802         9.37426
   O       -9.45564         9.20765         9.04975
   C      -10.83089        10.42377        10.51616
   C      -11.27597         9.47653        11.41284
   N      -12.08184        10.08308        12.31598
   C      -12.79964         9.41368        13.37129
   C      -14.17669         8.95761        12.89297
   C      -12.18114        11.40071        12.02066
   C      -11.41301        11.66097        10.90589
   C      -11.19805        12.92010        10.21409
   O      -11.72521        13.95954        10.57745
   C      -10.29893        12.79222         9.05080
   C       -9.91052        13.84044         8.20768
   C      -10.16903        15.22646         8.19225
   C      -10.89020        16.10007         8.92687
   C      -10.81802        17.47713         8.52549
   C      -10.04172        17.76275         7.46329
   S       -9.33979        16.19759         6.89445
   O       -7.91409        16.17678         7.07811
   O       -9.84407        15.85187         5.59451
   C       -9.71330        18.97044         6.77631
   C      -10.13986        20.19112         7.10621
   H        1.12312        -2.67383         2.20392
   H        1.56294        -1.89507        -0.25407
   H        0.53237         0.31980        -0.85874
   H       -1.45980         1.95499         2.15240
   H       -0.66007         2.45879        -0.77787
   H       -2.63084         6.07471        -3.50030
   H       -1.14915         6.85436        -2.98901
   H       -4.13162         6.53430         2.72521
   H       -4.05186         8.39811         0.28362
   H       -5.81622        11.68738         0.34931
   H       -5.25789        10.15748        -0.37249
   H       -3.54532        12.10769         1.25630
   H       -3.48866        11.90378        -0.49800
   H       -2.96240        10.59059         0.55756
   H       -6.27260         6.78945         6.59795
   H       -7.63197         7.84365         7.02289
   H       -4.66012         8.34239         7.60010
   H       -5.90630         7.94478         8.78854
   H       -5.93483         9.50832         7.97026
   H       -7.52841        11.67943         5.23195
   H       -8.24519         9.66942         7.44923
   H      -11.05870         8.42778        11.45608
   H      -12.90559        10.10361        14.21245
   H      -12.21266         8.55157        13.69773
   H      -14.76404         9.81064        12.56193
   H      -14.70572         8.46209        13.70188
   H      -14.07812         8.26296        12.06236
   H      -12.77288        12.07355        12.60893
   H      -11.49241        15.80616         9.77066
   H      -11.37644        18.21592         9.07851
   H       -9.05846        18.82818         5.92661
   H      -10.78999        20.35931         7.94772
   H       -9.84784        21.05719         6.53929
*
