# ORCA input file
# SCF done       -241.565565471070          0.000836437899
! CAM-B3LYP def2-SVP def2/J RIJCOSX Grid4 TightSCF
%maxcore 5000
%tddft
    Mode sTDDFT
    Ethresh 5.0
    maxcore 5000
end

%pal
  nprocs 6
  end
* xyz 0 1
   C      -14.74343        -2.43002         0.49512
   C      -14.84419        -2.14158        -0.83701
   F      -15.47988        -1.03445        -1.24029
   C      -14.28307        -3.00229        -1.80209
   F      -14.39854        -2.69530        -3.10090
   C      -13.62786        -4.13951        -1.42125
   C      -13.50773        -4.46466        -0.05597
   C      -14.07469        -3.59530         0.92116
   C      -13.96728        -3.90245         2.29684
   C      -13.31420        -5.04369         2.68130
   C      -12.75573        -5.91014         1.69897
   C      -12.84277        -5.63789         0.36362
   C      -12.14240        -7.07677         2.35935
   O      -11.60714        -8.02022         1.81463
   C      -12.41013        -6.89494         3.80691
   C      -13.04634        -5.60573         3.99946
   C      -13.25137        -4.99186         5.20430
   C      -12.81017        -5.52949         6.43304
   N      -12.42196        -5.90040         7.44704
   C      -13.85900        -3.72769         5.35204
   N      -14.35335        -2.70558         5.51829
   C      -12.28916        -7.89829         4.71675
   C      -11.57957        -9.10757         4.45921
   C      -12.06176       -10.40279         4.59523
   N      -13.35278       -10.74124         5.02788
   O      -13.61314       -11.92164         5.17488
   O      -14.14016        -9.82844         5.23413
   C      -11.07651       -11.33297         4.12958
   C      -10.00397       -10.62515         3.68393
   C      -10.25118        -9.22276         3.88611
   C       -9.32576        -8.19253         3.79214
   C       -9.24968        -7.05273         4.62588
   C       -8.03698        -6.43574         4.42847
   C       -7.32509        -7.11699         3.40839
   N       -6.06669        -6.72412         2.95000
   O       -5.50326        -7.41587         2.10670
   O       -5.57914        -5.71058         3.42508
   C       -8.12370        -8.17996         2.93371
   C       -7.92666        -8.89571         1.76092
   C       -8.91524        -9.59952         1.09078
   C       -8.74910       -10.31770        -0.08423
   S      -10.18387       -10.72942        -0.98681
   C       -9.28189       -11.31131        -2.34087
   C       -7.89222       -11.30897        -2.06127
   C       -7.58789       -10.76276        -0.78051
   C       -6.26563       -10.75169        -0.32748
   C       -5.24903       -11.22712        -1.13177
   C       -3.83295       -11.21205        -0.65894
   C       -5.56197       -11.77033        -2.38935
   C       -6.85272       -11.83190        -2.84734
   C       -9.99154       -11.65895        -3.50789
   C       -9.48021       -11.69737        -4.76927
   C      -10.23447       -12.00666        -5.92118
   S      -11.90353       -12.48873        -5.84092
   C       -9.79789       -11.93985        -7.24454
   C       -8.43459       -11.52071        -7.63304
   O       -7.52179       -11.34500        -6.84256
   C       -8.30653       -11.32426        -9.06551
   C       -7.27042       -10.78015        -9.79312
   N       -7.60681       -10.79684       -11.10443
   C       -6.76686       -10.33835       -12.18308
   C       -5.87104       -11.46342       -12.69624
   C       -8.82389       -11.36609       -11.25339
   C       -9.30687       -11.70297       -10.00560
   C      -10.56835       -12.31165        -9.63844
   O      -11.34172       -12.80558       -10.44348
   C      -10.81807       -12.24934        -8.18014
   C      -12.03297       -12.54442        -7.57097
   C      -13.31156       -12.87704        -8.10746
   C      -13.91264       -12.46782        -9.24886
   C      -15.08438       -13.23886        -9.76370
   O      -15.76503       -14.01695        -9.14140
   C      -15.17285       -12.88184       -11.19275
   C      -15.98226       -13.40901       -12.15788
   C      -15.87021       -12.93320       -13.48341
   C      -14.91263       -11.92078       -13.78508
   C      -14.80141       -11.45681       -15.11160
   C      -15.60357       -11.97067       -16.09121
   C      -16.55146       -12.97030       -15.79139
   C      -16.68298       -13.44203       -14.51531
   F      -17.32347       -13.45565       -16.77176
   F      -15.49560       -11.52778       -17.35026
   C      -14.09181       -11.39022       -12.76476
   C      -14.22376       -11.85988       -11.48499
   C      -13.54427       -11.48595       -10.25140
   C      -12.85563       -10.32339       -10.03724
   C      -12.42091        -9.89815        -8.76625
   N      -12.07825        -9.49111        -7.74890
   C      -12.49088        -9.42470       -11.05959
   N      -12.12459        -8.68316       -11.85535
   H      -15.17794        -1.76000         1.22041
   H      -13.20474        -4.78810        -2.17228
   H      -14.41285        -3.23173         3.01394
   H      -12.41249        -6.30998        -0.36337
   H      -12.81723        -7.83525         5.66138
   H      -11.20736       -12.39781         4.14327
   H       -9.07299       -11.02805         3.33384
   H       -9.96817        -6.79558         5.38119
   H       -7.65480        -5.58095         4.95500
   H       -6.96205        -8.76350         1.29098
   H       -9.93424        -9.49052         1.43924
   H       -6.02813       -10.39781         0.66158
   H       -3.53689       -12.21153        -0.33862
   H       -3.70852       -10.53167         0.17902
   H       -3.16499       -10.91171        -1.46341
   H       -4.76357       -12.16842        -2.99746
   H       -7.06354       -12.30275        -3.79236
   H      -11.05481       -11.82961        -3.37886
   H       -8.45607       -11.41505        -4.96340
   H       -6.34110       -10.37287        -9.44748
   H       -6.15549        -9.50988       -11.81727
   H       -7.40745        -9.97111       -12.98853
   H       -5.23076       -11.83256       -11.89874
   H       -5.24501       -11.09781       -13.50486
   H       -6.47318       -12.28930       -13.06706
   H       -9.28846       -11.47927       -12.21287
   H      -13.89161       -13.58045        -7.51530
   H      -16.69707       -14.18025       -11.91436
   H      -14.08405       -10.68961       -15.35787
   H      -17.41280       -14.20740       -14.30263
   H      -13.36793       -10.63310       -13.02051
*
