# ORCA input file
# SCF done       -243.856484844100          0.000367304952
! CAM-B3LYP def2-SVP def2/J RIJCOSX Grid4 TightSCF
%maxcore 5000
%tddft
    Mode sTDDFT
    Ethresh 5.0
    maxcore 5000
end

%pal
  nprocs 6
  end
* xyz 0 1
   C       -5.77679         0.80452         2.82786
   C       -6.71356         0.51391         3.77763
   F       -6.97376         1.39004         4.76079
   C       -7.41918        -0.70469         3.74377
   F       -8.35619        -0.94810         4.67676
   C       -7.15203        -1.63391         2.77907
   C       -6.16330        -1.38107         1.80659
   C       -5.48133        -0.12892         1.81376
   C       -4.52095         0.16553         0.82080
   C       -4.21490        -0.78468        -0.11775
   C       -4.84507        -2.05963        -0.07154
   C       -5.81909        -2.35126         0.84112
   C       -4.25817        -2.94126        -1.09439
   O       -4.52344        -4.10610        -1.28878
   C       -3.20707        -2.12184        -1.77073
   C       -3.28855        -0.76676        -1.24191
   C       -2.73179         0.34167        -1.80788
   C       -1.95146         0.32469        -2.98546
   N       -1.32864         0.37931        -3.94701
   C       -2.94358         1.65277        -1.32817
   N       -3.09217         2.73587        -0.98083
   C       -2.27281        -2.60593        -2.61780
   C       -2.31340        -3.90895        -3.22982
   C       -1.20509        -4.75242        -3.31007
   C        0.06731        -4.46653        -2.71608
   O        0.32347        -3.49507        -2.04112
   C        1.17650        -5.52200        -2.99107
   F        0.84879        -6.72321        -2.48280
   F        1.37514        -5.70385        -4.30784
   F        2.33959        -5.16900        -2.45776
   S       -1.58257        -6.22203        -4.15229
   C       -3.18441        -5.70856        -4.39621
   C       -3.46019        -4.46792        -3.86634
   C       -4.71431        -3.76690        -3.92075
   C       -5.92911        -4.33634        -4.04704
   C       -7.12020        -3.55867        -3.96671
   N       -8.37578        -4.08268        -4.13664
   C       -8.71581        -5.47707        -4.28065
   C       -8.64785        -6.20446        -2.93999
   C       -9.37712        -3.10322        -4.02739
   O      -10.56186        -3.34104        -4.14544
   C       -8.64846        -1.87812        -3.77546
   C       -7.26379        -2.19281        -3.73101
   C       -6.55233        -0.97522        -3.42310
   O       -5.37024        -0.74817        -3.21445
   N       -7.54494         0.01055        -3.35487
   C       -7.21695         1.39193        -3.09224
   C       -7.07877         2.19536        -4.38243
   C       -8.80040        -0.51344        -3.56353
   C      -10.01011         0.23650        -3.56758
   C      -11.20629        -0.38854        -3.48191
   C      -12.50585         0.21792        -3.62529
   C      -12.68689         1.25732        -4.55203
   C      -13.96182         1.68055        -4.83446
   C      -15.07668         1.07740        -4.23443
   C      -16.29535         1.72394        -4.77783
   O      -17.45356         1.50696        -4.53027
   N      -15.83515         2.67548        -5.67794
   C      -14.45287         2.72357        -5.76932
   O      -13.82786         3.47035        -6.47789
   C      -16.71190         3.56587        -6.40919
   C      -16.96961         4.84959        -5.62830
   C      -14.92581         0.07850        -3.30456
   C      -13.62816        -0.32996        -2.95068
   C      -13.49632        -1.19880        -1.80834
   C      -12.45876        -1.15528        -0.93863
   C      -12.49729        -1.75827         0.34528
   C      -11.68330        -1.40625         1.37989
   C      -12.12143        -1.56149         2.79764
   O      -12.91856        -2.35561         3.23252
   C      -11.43484        -0.46449         3.51645
   C      -11.59321        -0.04943         4.80646
   C      -10.89142         1.09371         5.25253
   C      -10.04537         1.79925         4.34765
   C       -9.38949         2.96546         4.78833
   C       -9.54413         3.39744         6.07541
   C      -10.36319         2.68722         6.97590
   C      -11.02617         1.56151         6.57333
   F      -10.49598         3.13226         8.23151
   F       -8.92351         4.50698         6.49166
   C       -9.86431         1.32160         3.02949
   C      -10.54253         0.20334         2.62613
   C      -10.53810        -0.52411         1.36645
   C       -9.53090        -0.54603         0.43460
   C       -9.40610        -1.59417        -0.49735
   N       -9.21399        -2.48534        -1.19547
   C       -8.46986         0.37322         0.39210
   N       -7.61618         1.13309         0.27480
   H       -5.25974         1.75047         2.85781
   H       -7.68971        -2.56970         2.77338
   H       -4.04072         1.13069         0.83390
   H       -6.30621        -3.31464         0.83518
   H       -1.40317        -2.00638        -2.85852
   H       -3.86007        -6.34112        -4.93849
   H       -4.65483        -2.69640        -3.77946
   H       -6.02565        -5.40474        -4.16492
   H       -8.05722        -5.94384        -5.01835
   H       -9.74123        -5.50031        -4.66004
   H       -7.64390        -6.16281        -2.52352
   H       -8.93552        -7.24451        -3.06731
   H       -9.32991        -5.73481        -2.23584
   H       -6.26302         1.38837        -2.55762
   H       -7.97528         1.82598        -2.43596
   H       -6.29242         1.76974        -5.00099
   H       -6.81733         3.22309        -4.14764
   H       -8.00702         2.18870        -4.94986
   H       -9.94639         1.31494        -3.61146
   H      -11.21534        -1.46226        -3.34247
   H      -11.83968         1.68302        -5.06673
   H      -17.64846         3.03085        -6.58276
   H      -16.22832         3.79085        -7.36270
   H      -17.43861         4.62137        -4.67387
   H      -17.63015         5.49839        -6.19605
   H      -16.03399         5.37397        -5.44792
   H      -15.78820        -0.36157        -2.82732
   H      -14.36026        -1.80306        -1.56273
   H      -11.63089        -0.49475        -1.15524
   H      -13.33739        -2.40008         0.58185
   H      -12.25005        -0.58016         5.47830
   H       -8.75087         3.51625         4.11596
   H      -11.65340         1.03275         7.27369
   H       -9.20671         1.85703         2.36084
*
