# ORCA input file
# SCF done       -236.255169348472          0.000707141298
! CAM-B3LYP def2-SVP def2/J RIJCOSX Grid4 TightSCF
%maxcore 5000
%tddft
    Mode sTDDFT
    Ethresh 5.0
    maxcore 5000
end

%pal
  nprocs 6
  end
* xyz 0 1
   C       -4.79205        -4.41603       -11.66083
   C       -5.32189        -4.41174       -12.92015
   F       -4.55254        -4.10860       -13.97387
   C       -6.68071        -4.72525       -13.12788
   F       -7.17242        -4.71319       -14.37405
   C       -7.49077        -5.03769       -12.07255
   C       -6.97501        -5.05083       -10.76176
   C       -5.60071        -4.73525       -10.55069
   C       -5.06025        -4.74546        -9.24573
   C       -5.86864        -5.06588        -8.18581
   C       -7.24018        -5.38134        -8.40584
   C       -7.79085        -5.37133        -9.65411
   C       -7.88430        -5.68054        -7.11255
   O       -9.06502        -5.71029        -6.85966
   C       -6.75269        -5.74839        -6.13142
   C       -5.57926        -5.16904        -6.75992
   C       -4.42890        -4.77473        -6.13270
   C       -4.24582        -4.81178        -4.73387
   N       -4.07011        -4.79910        -3.59963
   C       -3.31123        -4.22910        -6.79930
   N       -2.37524        -3.78193        -7.28982
   C       -6.84277        -6.34151        -4.91938
   C       -7.96830        -7.10521        -4.48520
   C       -8.70868        -8.05539        -5.17570
   N       -8.44573        -8.61939        -6.43430
   O       -8.99861        -9.67642        -6.68887
   O       -7.65281        -8.07976        -7.19297
   C       -9.68025        -8.64420        -4.28563
   C       -9.48658        -8.14275        -3.04552
   C       -8.38754        -7.20316        -3.09120
   C       -7.82339        -6.54902        -2.01196
   C       -7.26739        -5.24381        -1.95179
   C       -7.11676        -4.89475        -0.63553
   C       -7.47991        -6.00210         0.19101
   N       -7.36618        -6.01061         1.59052
   O       -7.65638        -7.04019         2.18403
   O       -7.00031        -4.98589         2.13516
   C       -7.86020        -7.06825        -0.62545
   C       -8.03428        -8.42086        -0.29485
   C       -7.81333        -9.40444        -1.22947
   C       -8.11315       -10.77520        -1.24281
   N       -8.65448       -11.61512        -0.30219
   C       -8.97600       -11.30792         1.07320
   C      -10.34506       -10.64512         1.19830
   C       -8.90942       -12.89401        -0.83200
   O       -9.38079       -13.80673        -0.18637
   C       -8.48987       -12.81046        -2.22115
   C       -7.98833       -11.51746        -2.42597
   C       -7.59870       -11.38539        -3.81611
   O       -7.10169       -10.46797        -4.43044
   N       -7.92500       -12.63481        -4.37853
   C       -7.72630       -12.88549        -5.78800
   C       -6.38442       -13.55888        -6.05839
   C       -8.43120       -13.49948        -3.44631
   C       -8.78229       -14.84352        -3.72940
   C       -9.24675       -15.67308        -2.76092
   C       -9.57315       -17.06579        -2.88848
   C       -9.98601       -17.75260        -1.73596
   C      -10.26960       -19.09619        -1.77334
   F      -10.66013       -19.70909        -0.64722
   C      -10.12407       -19.86327        -2.93872
   C       -9.75013       -19.17904        -4.09874
   C       -9.49658       -17.82785        -4.06801
   F       -9.15828       -17.24800        -5.23448
   C      -10.39742       -21.27876        -2.92213
   C       -9.81448       -22.25616        -3.64878
   C      -10.48239       -23.59443        -3.74417
   O      -11.38712       -23.99389        -3.05469
   C       -9.83657       -24.26558        -4.88734
   C      -10.15678       -25.45817        -5.47134
   C       -9.40960       -25.89997        -6.58538
   C       -8.34660       -25.08902        -7.08129
   C       -7.61074       -25.53129        -8.19937
   C       -7.91256       -26.72414        -8.79398
   C       -8.96222       -27.52704        -8.30077
   C       -9.69578       -27.12469        -7.21999
   F       -9.23502       -28.68960        -8.90380
   F       -7.21306       -27.14332        -9.85400
   C       -8.03392       -23.86257        -6.45334
   C       -8.76209       -23.46052        -5.36438
   C       -8.63904       -22.28677        -4.50532
   C       -7.51463       -21.51951        -4.37555
   C       -7.32862       -20.53818        -3.37884
   N       -7.10372       -19.75526        -2.57100
   C       -6.36629       -21.67365        -5.18315
   N       -5.41886       -21.74994        -5.82524
   H       -3.75038        -4.17343       -11.51942
   H       -8.52814        -5.27562       -12.24840
   H       -4.01612        -4.50875        -9.11643
   H       -8.83234        -5.61532        -9.79612
   H       -6.02141        -6.27214        -4.21794
   H      -10.41385        -9.35972        -4.60333
   H      -10.08765        -8.32307        -2.17574
   H       -7.12371        -4.59735        -2.79559
   H       -6.77561        -3.95208        -0.25028
   H       -8.27951        -8.64406         0.73375
   H       -7.34968        -9.10261        -2.16054
   H       -8.19017       -10.67783         1.49426
   H       -8.98572       -12.26263         1.60648
   H      -10.39596        -9.73363         0.60729
   H      -10.53559       -10.39601         2.23795
   H      -11.12025       -11.32578         0.85484
   H       -7.76243       -11.90975        -6.28131
   H       -8.55151       -13.49300        -6.16547
   H       -5.57241       -12.92589        -5.70952
   H       -6.26535       -13.71751        -7.12605
   H       -6.32033       -14.51978        -5.55189
   H       -8.63834       -15.18311        -4.74213
   H       -9.37047       -15.27396        -1.76190
   H      -10.07549       -17.21970        -0.80195
   H       -9.67774       -19.70100        -5.04075
   H      -11.19935       -21.60083        -2.26395
   H      -10.96951       -26.05568        -5.08752
   H       -6.80185       -24.93172        -8.58673
   H      -10.49531       -27.75021        -6.85517
   H       -7.23084       -23.26531        -6.85474
*
