# ORCA input file
# SCF done       -192.945627101328          0.000549503289
! CAM-B3LYP def2-SVP def2/J RIJCOSX Grid4 TightSCF
%maxcore 5000
%tddft
    Mode sTDDFT
    Ethresh 5.0
    maxcore 5000
end

%pal
  nprocs 6
  end
* xyz 0 1
   C       -1.71908        -0.97639        -3.22205
   N       -1.67421         0.25856        -3.81167
   C       -0.42195         0.38503        -4.32618
   N        0.10866         1.39079        -5.00271
   C        1.35766         1.12668        -5.34509
   N        2.24546         1.88452        -6.01952
   C        3.40483         1.15182        -6.11634
   N        3.30545        -0.02999        -5.53132
   C        2.05450        -0.10759        -5.03910
   N        1.49109        -1.10133        -4.37277
   C        0.24792        -0.84811        -4.00766
   N       -0.61829        -1.64877        -3.31997
   C        4.60991         1.61902        -6.71962
   C        5.06533         2.92879        -6.95674
   N        4.40363         4.15598        -6.93189
   O        3.17269         4.19311        -6.86008
   O        5.08132         5.16666        -7.00624
   C        6.46090         2.87551        -7.26971
   C        6.87550         1.58141        -7.20756
   C        5.75106         0.74946        -6.90971
   C        5.75156        -0.64545        -6.96875
   C        4.72930        -1.49647        -7.43843
   C        5.22944        -2.76446        -7.55701
   C        6.59577        -2.78701        -7.13425
   N        7.27605        -3.98376        -7.00312
   O        8.44019        -3.99088        -6.57770
   O        6.69158        -5.01786        -7.29562
   C        6.95497        -1.47942        -6.74393
   C        8.06680        -0.97093        -6.07033
   C        9.33156        -1.50964        -6.07880
   N       10.36335        -1.10567        -5.31864
   C       10.18738        -0.24390        -4.21957
   C       11.12086         0.74949        -3.92149
   S       12.61900         0.90977        -4.83662
   C       12.77093        -0.73838        -5.44009
   C       14.04065        -1.18306        -5.79152
   C       14.21424        -2.44792        -6.31551
   C       13.11989        -3.28684        -6.46511
   C       11.85701        -2.85627        -6.10962
   C       11.66105        -1.56719        -5.61414
   C       10.87875         1.65177        -2.89221
   C        9.72963         1.55147        -2.13557
   C        8.83882         0.51316        -2.36893
   C        9.06855        -0.37883        -3.39597
   C        9.18417        -5.17628        -3.66630
   C       10.56872        -4.71292        -3.45592
   C       10.99791        -3.58316        -2.82830
   C       12.42129        -3.47481        -2.96390
   C       12.84724        -4.67908        -3.70714
   C       11.73283        -5.40730        -3.98335
   C       14.15537        -5.02129        -4.05376
   N       15.22298        -5.31860        -4.36071
   C       13.22212        -2.43142        -2.58214
   C       14.58379        -2.19980        -2.94837
   C       14.96616        -0.95353        -2.50869
   C       13.84771        -0.37787        -1.78021
   C       12.80474        -1.24911        -1.80851
   C       11.58801        -1.08135        -1.14420
   N       10.60283        -0.92119        -0.57400
   C       16.19511        -0.26599        -2.71517
   C       17.26421        -0.76663        -3.37521
   C       18.45304        -0.00209        -3.55535
   N       19.57214        -0.51308        -4.19017
   C       20.50421         0.46966        -4.18661
   N       21.73538         0.45552        -4.67613
   C       22.32045         1.62801        -4.46793
   N       23.57249         2.03184        -4.80942
   C       23.68535         3.32654        -4.37246
   N       22.62722         3.78240        -3.78787
   C       21.72015         2.75865        -3.81224
   N       20.48875         2.74856        -3.33316
   C       19.87903         1.58796        -3.52415
   N       18.62224         1.23874        -3.15999
   H       -2.59873        -1.33986        -2.72747
   H       -2.40618         0.94804        -3.85770
   H        2.15961         2.84372        -6.35805
   H        7.04280         3.74040        -7.52433
   H        7.85150         1.21938        -7.46791
   H        3.74318        -1.18234        -7.71241
   H        4.70925        -3.63632        -7.90750
   H        7.90166        -0.05346        -5.52032
   H        9.57031        -2.26153        -6.81110
   H        8.89809        -4.97496        -4.70333
   H       14.87810        -0.51630        -5.65544
   H       15.19882        -2.78792        -6.59360
   H       13.25191        -4.28254        -6.85742
   H       11.01670        -3.52693        -6.20261
   H       11.60541         2.42564        -2.70015
   H        9.54526         2.25741        -1.34226
   H        7.96835         0.39375        -1.74525
   H        8.39354        -1.20418        -3.56143
   H        9.10539        -6.25108        -3.51318
   H        8.49066        -4.65880        -3.00858
   H       10.38255        -2.85807        -2.33208
   H       11.69517        -6.34418        -4.50833
   H       15.17570        -2.88933        -3.51504
   H       13.86764         0.57922        -1.29227
   H       16.27823         0.73863        -2.32378
   H       17.25584        -1.76741        -3.78343
   H       19.68450        -1.44025        -4.56608
   H       24.26651         1.48001        -5.28568
   H       24.58323         3.89656        -4.51294
*
