# ORCA input file
# SCF done       -194.737051024543          0.000826030409
! CAM-B3LYP def2-SVP def2/J RIJCOSX Grid4 TightSCF
%maxcore 5000
%tddft
    Mode sTDDFT
    Ethresh 5.0
    maxcore 5000
end

%pal
  nprocs 6
  end
* xyz 0 1
   C       -1.08783         0.29794         7.88932
   N       -1.10590         1.38136         7.07605
   C        0.03713         2.17434         6.69566
   C        0.50843         3.06484         7.84194
   C       -2.42488         1.70363         6.67884
   O       -2.69089         2.64416         5.95284
   C       -3.23945         0.69620         7.31481
   C       -2.37198        -0.15371         8.05927
   C       -3.18186        -1.18276         8.68963
   O       -2.89798        -2.11318         9.40546
   N       -4.49459        -0.88735         8.26721
   C       -5.61764        -1.67660         8.71978
   C       -6.45512        -0.94816         9.76706
   C       -4.54665         0.21766         7.45603
   C       -5.74343         0.69865         6.87668
   C       -5.75765         1.80784         6.08323
   C       -6.86496         2.39255         5.42477
   C       -8.23317         2.45239         5.71296
   N       -8.97863         1.87804         6.75425
   O      -10.13367         2.25008         6.87979
   O       -8.45996         1.04698         7.48645
   C       -8.86533         3.35848         4.79612
   C       -7.92612         3.88230         3.96500
   C       -6.65795         3.30410         4.28693
   C       -5.48843         3.42025         3.55181
   C       -4.51052         2.40041         3.37449
   C       -3.66543         2.76255         2.36281
   C       -4.02915         4.05804         1.89587
   N       -3.31533         4.72472         0.88981
   O       -3.67760         5.84177         0.54445
   O       -2.36540         4.14010         0.39651
   C       -5.13250         4.51885         2.63097
   C       -5.66014         5.81547         2.58319
   C       -6.40398         6.42710         3.56205
   C       -6.95201         7.71186         3.43215
   C       -6.93926         8.56387         2.32634
   C       -7.61637         9.74242         2.57216
   C       -8.17059         9.83400         3.87394
   S       -7.82627         8.41265         4.79197
   C       -8.84979        11.01145         4.11714
   C       -8.84082        11.85885         3.00588
   S       -7.96346        11.15866         1.65151
   C       -9.40941        13.13121         2.83549
   C      -10.07154        13.81836         3.82120
   C      -10.69467        15.07605         3.73697
   C      -11.14983        15.86424         2.66533
   N      -10.93686        15.77051         1.28035
   O      -11.68082        16.41718         0.56269
   O      -10.02234        15.08149         0.85113
   C      -11.98834        16.90146         3.17710
   C      -12.07300        16.79158         4.53441
   C      -11.25447        15.70506         4.95180
   C      -10.87802        15.42429         6.25892
   C       -9.60344        14.95152         6.67456
   C       -9.48830        15.10945         8.03171
   C      -10.70779        15.62660         8.54334
   N      -10.91978        15.85267         9.90994
   O      -10.00479        15.58226        10.67048
   O      -11.99247        16.31450        10.27582
   C      -11.61584        15.79642         7.48109
   C      -12.97948        16.07625         7.60453
   C      -13.94685        15.80489         6.66208
   C      -15.29989        16.12177         6.80621
   C      -15.99225        16.78765         7.79603
   C      -17.37466        16.86887         7.46350
   C      -17.62262        16.26505         6.25847
   C      -16.31233        15.73922         5.75603
   O      -16.10242        15.13825         4.73449
   C      -18.82811        16.09687         5.51241
   C      -20.03677        16.53327         5.88594
   H       -0.16638        -0.08698         8.28531
   H       -0.28006         2.78942         5.84931
   H        0.84291         1.50806         6.37441
   H       -0.28844         3.73961         8.14503
   H        1.36137         3.65596         7.52106
   H        0.80275         2.46455         8.70010
   H       -5.18343        -2.58097         9.15562
   H       -6.23594        -1.95905         7.86328
   H       -5.82418        -0.62447        10.59146
   H       -7.21176        -1.62397        10.15507
   H       -6.95578        -0.08242         9.34159
   H       -6.65085         0.14982         7.06522
   H       -4.81337         2.30448         5.89739
   H       -9.92048         3.55581         4.79880
   H       -8.10705         4.53263         3.13156
   H       -4.52205         1.44736         3.86509
   H       -2.85443         2.18865         1.95580
   H       -5.37234         6.39534         1.71619
   H       -6.56766         5.92397         4.50518
   H       -6.45408         8.32406         1.39885
   H       -9.33313        11.25069         5.04589
   H       -9.28881        13.58477         1.86208
   H      -10.13838        13.35300         4.79572
   H      -12.44916        17.64513         2.55472
   H      -12.57327        17.47246         5.19506
   H       -8.80918        14.66137         6.01382
   H       -8.62790        14.89798         8.63851
   H      -13.29409        16.45939         8.56664
   H      -13.68498        15.28075         5.75140
   H      -15.57225        17.18986         8.70056
   H      -18.10462        17.34574         8.09280
   H      -18.70624        15.56557         4.57666
   H      -20.19199        17.06063         6.81177
   H      -20.90567        16.36687         5.27414
*
