# ORCA input file
# SCF done       -251.202947704162          0.000727122881
! CAM-B3LYP def2-SVP def2/J RIJCOSX Grid4 TightSCF
%maxcore 5000
%tddft
    Mode sTDDFT
    Ethresh 5.0
    maxcore 5000
end

%pal
  nprocs 6
  end
* xyz 0 1
   C       -9.54895        -2.54204         0.05556
   C      -10.48753        -1.62269        -0.38800
   C      -11.76590        -1.65380         0.16963
   C      -12.73982        -0.72234        -0.27107
   N      -13.52036         0.03384        -0.62993
   C      -12.10912        -2.59297         1.16274
   C      -13.41598        -2.59624         1.70875
   N      -14.46697        -2.60912         2.16243
   C      -11.16346        -3.51614         1.60804
   C       -9.90246        -3.47807         1.04854
   C       -8.75051        -4.34881         1.34633
   O       -8.67815        -5.20787         2.19311
   C       -7.67295        -3.91151         0.40857
   C       -8.16241        -2.76320        -0.34722
   C       -7.47170        -2.04765        -1.28005
   C       -7.99937        -0.93957        -1.98315
   N       -8.37250        -0.03363        -2.57840
   C       -6.14004        -2.30813        -1.67998
   N       -5.07174        -2.46512        -2.06583
   C       -6.48145        -4.52692         0.31386
   C       -6.13190        -5.73364         1.04972
   C       -5.00841        -5.75819         1.86941
   C       -4.07207        -4.65920         2.18935
   O       -4.09695        -3.51378         1.81875
   N       -3.11609        -5.21255         3.04711
   C       -3.37444        -6.55743         3.33289
   O       -2.72111        -7.27754         4.03866
   C       -4.61139        -6.89298         2.57892
   C       -5.32556        -8.07351         2.51893
   C       -6.44939        -8.06589         1.69657
   C       -6.84286        -6.94345         0.96943
   C       -8.03538        -7.15797         0.12521
   O       -8.55053        -6.39018        -0.63616
   S       -8.64593        -8.81947         0.38573
   C       -7.32367        -9.24521         1.52886
   O       -7.21279       -10.31373         2.04404
   C       -2.05554        -4.43673         3.51954
   C       -1.03222        -4.90525         4.23993
   C        0.08730        -4.13026         4.72910
   C        1.16238        -4.82061         5.29013
   C        2.27572        -4.16953         5.79696
   C        2.35362        -2.76866         5.71603
   C        1.27484        -2.07351         5.15606
   C        0.16641        -2.73321         4.67790
   N        3.48290        -2.07427         6.14115
   C        3.32704        -0.82297         6.75801
   C        2.29124        -0.61725         7.66775
   C        2.13857         0.61387         8.27496
   C        3.01301         1.64970         7.98806
   C        4.04378         1.44815         7.08420
   C        4.20244         0.22212         6.46789
   C        4.76068        -2.60402         5.95310
   C        5.04204        -3.40180         4.84236
   C        6.29428        -3.96459         4.69101
   C        7.28572        -3.73719         5.63184
   C        7.02030        -2.91881         6.71844
   C        5.77267        -2.35034         6.87976
   C        3.29759        -5.01641         6.41503
   C        3.70119        -4.92791         7.68524
   C        4.66153        -5.84624         8.25876
   C        4.70096        -7.21407         7.94243
   C        3.73665        -8.05047         7.19653
   O        2.69705        -7.77555         6.65916
   N        4.24911        -9.36502         7.24124
   C        5.44971        -9.44275         7.96197
   O        6.11607       -10.42862         8.11857
   C        5.69660        -8.06354         8.44190
   C        6.70731        -7.61580         9.27114
   C        6.64422        -6.27763         9.63920
   C        5.64283        -5.42097         9.17798
   C        5.71901        -4.06355         9.74469
   O        4.96236        -3.14824         9.60063
   S        7.17984        -3.93736        10.78618
   C        7.63194        -5.65599        10.54387
   O        8.58707        -6.16811        11.04174
   C        3.54489       -10.40131         6.67116
   C        3.86968       -11.70468         6.74466
   C        3.04994       -12.70063         6.14997
   C        3.10687       -14.03925         6.37429
   C        2.45958       -14.98476         5.42683
   O        1.66701       -14.71865         4.55650
   C        3.04667       -16.30746         5.74618
   C        2.86460       -17.50613         5.08958
   C        3.55520       -18.62495         5.55788
   C        4.41544       -18.51191         6.66732
   C        4.58596       -17.29540         7.33072
   C        3.89160       -16.19016         6.86860
   C        3.82827       -14.81398         7.36478
   C        4.17536       -14.40995         8.62482
   C        3.82193       -13.16117         9.18382
   N        3.49867       -12.19157         9.70481
   C        4.82201       -15.24406         9.56372
   N        5.35761       -15.88262        10.35145
   C        5.12296       -19.65504         7.11645
   N        5.69856       -20.57418         7.48255
   C        3.39494       -19.87463         4.91158
   N        3.25157       -20.87502         4.37341
   H      -10.26401        -0.89041        -1.14746
   H      -11.41000        -4.24399         2.36619
   H       -5.69432        -4.12473        -0.31034
   H       -5.04053        -8.95443         3.07171
   H       -2.15039        -3.40544         3.20908
   H       -0.99991        -5.95634         4.48494
   H        1.12544        -5.89752         5.36609
   H        1.33114        -0.99714         5.08782
   H       -0.64158        -2.15968         4.25272
   H        1.61792        -1.42923         7.89959
   H        1.33774         0.76258         8.98345
   H        2.89267         2.60903         8.46715
   H        4.72503         2.25282         6.85197
   H        4.99890         0.06685         5.75502
   H        4.27935        -3.56557         4.09528
   H        6.50054        -4.57838         3.82671
   H        8.26106        -4.18345         5.51272
   H        7.79074        -2.72461         7.45025
   H        5.56450        -1.72778         7.73598
   H        3.67954        -5.80510         5.78135
   H        3.36793        -4.11614         8.31513
   H        7.48459        -8.26657         9.63811
   H        2.63614       -10.06588         6.18444
   H        4.76779       -12.00686         7.26030
   H        2.34132       -12.38092         5.39337
   H        2.20642       -17.57594         4.23683
   H        5.25660       -17.24336         8.17397
*
