# ORCA input file
# SCF done       -237.904327844004          0.000552376943
! CAM-B3LYP def2-SVP def2/J RIJCOSX Grid4 TightSCF
%maxcore 5000
%tddft
    Mode sTDDFT
    Ethresh 5.0
    maxcore 5000
end

%pal
  nprocs 6
  end
* xyz 0 1
   C        5.23370        -4.25478        -6.39973
   O        4.34253        -3.43055        -6.91662
   C        4.62398        -3.27885        -8.23466
   C        5.74233        -4.04545        -8.56545
   C        6.13487        -4.68138        -7.34868
   C        7.23767        -5.63021        -7.03661
   F        7.20846        -5.99697        -5.74757
   F        7.17892        -6.77128        -7.74977
   F        8.46544        -5.12310        -7.25223
   O        6.21497        -4.07898        -9.81334
   C        7.42338        -4.75926       -10.09926
   C        3.85208        -2.43002        -9.07741
   C        2.76381        -1.76166        -8.64997
   C        1.92089        -0.91416        -9.45210
   C        0.53904        -0.88602        -9.20115
   C       -0.23395        -1.60845        -8.16308
   O        0.16561        -2.36720        -7.31533
   N       -1.56667        -1.23038        -8.35025
   C       -1.71921        -0.33988        -9.42142
   O       -2.76431         0.13194        -9.78074
   C       -0.35693        -0.13486        -9.96314
   C        0.05821         0.63935       -11.02915
   C        1.42827         0.66593       -11.26238
   C        2.34713        -0.06044       -10.49810
   C        3.74906         0.26565       -10.81413
   O        4.75202        -0.06241       -10.25415
   S        3.79446         1.39060       -12.22877
   C        2.01284         1.50226       -12.32853
   O        1.42949         2.16301       -13.13455
   C       -2.67049        -1.61378        -7.59178
   C       -2.66459        -2.53634        -6.62447
   C       -3.81615        -2.90535        -5.82651
   C       -4.94759        -2.12453        -5.73414
   C       -6.01050        -2.52639        -4.90528
   C       -7.22211        -1.90202        -4.61570
   C       -7.73881        -0.64496        -5.21817
   C       -9.12614        -0.85376        -5.86285
   N       -9.25336         0.02513        -7.00807
   C       -7.76034         0.50399        -4.19240
   N       -6.39571         0.85637        -3.85064
   C       -7.89825        -2.73697        -3.64833
   C       -9.05633        -2.57650        -2.97954
   C       -9.53706        -3.58632        -1.99847
   C       -8.69626        -4.82095        -1.90027
   C       -7.52343        -4.94849        -2.55162
   C       -7.06441        -3.92138        -3.40681
   C       -5.90966        -3.77009        -4.16155
   C       -4.74610        -4.55705        -4.28273
   C       -3.73456        -4.12517        -5.08407
   C      -10.98317        -3.94542        -2.22797
   C      -11.59014        -3.74516        -3.39035
   C      -13.01444        -3.92500        -3.64023
   C      -13.72602        -2.84890        -4.17312
   C      -13.23783        -1.49457        -4.47916
   O      -12.12544        -1.04123        -4.32896
   N      -14.34519        -0.79595        -4.96578
   C      -15.51295        -1.58898        -4.97293
   O      -16.59160        -1.20307        -5.33826
   C      -15.09957        -2.90347        -4.44967
   C      -15.83581        -4.04861        -4.21107
   C      -15.14034        -5.13162        -3.68443
   C      -13.76616        -5.08453        -3.39777
   C      -13.21622        -6.34733        -2.88922
   O      -12.08894        -6.60782        -2.57983
   S      -14.54486        -7.56043        -2.78096
   C      -15.78818        -6.41907        -3.39700
   O      -16.93988        -6.70871        -3.53532
   C      -14.38852         0.52673        -5.37312
   C      -13.33856         1.36192        -5.41243
   C      -13.48389         2.72459        -5.83108
   O      -14.70505         3.16735        -6.15370
   C      -14.62082         4.46592        -6.51225
   C      -13.29977         4.89266        -6.42348
   C      -12.55777         3.75965        -5.97779
   C      -11.10126         3.67358        -5.70403
   F      -10.69992         2.47144        -5.26444
   F      -10.33761         3.91404        -6.79220
   F      -10.68405         4.54634        -4.76348
   O      -12.98711         6.16393        -6.72799
   C      -11.64417         6.60303        -6.78045
   C      -15.77990         5.21527        -6.90479
   C      -17.01428         4.71877        -6.95057
   H        5.16784        -4.49324        -5.35583
   H        7.60510        -4.58269       -11.15768
   H        7.33097        -5.83336        -9.92493
   H        8.25597        -4.35612        -9.51915
   H        4.20081        -2.38412       -10.09695
   H        2.41643        -1.93525        -7.64083
   H       -0.62583         1.21014       -11.63593
   H       -3.56119        -1.08029        -7.89521
   H       -1.75077        -3.06862        -6.40639
   H       -5.01587        -1.18559        -6.25946
   H       -7.06122        -0.34164        -6.02052
   H       -9.91564        -0.70678        -5.11202
   H       -9.19538        -1.88176        -6.23308
   H       -9.23622         0.99543        -6.71750
   H      -10.12375        -0.14269        -7.49819
   H       -8.37012         0.20595        -3.32375
   H       -8.22492         1.38197        -4.64602
   H       -5.93553         0.08301        -3.38205
   H       -6.36999         1.66434        -3.24022
   H       -9.68585        -1.70885        -3.11334
   H       -9.50134        -3.09863        -1.00769
   H       -9.07855        -5.60702        -1.26881
   H       -6.92836        -5.84284        -2.43946
   H       -4.66276        -5.48169        -3.73116
   H       -2.83200        -4.71136        -5.17722
   H      -11.50868        -4.37048        -1.38579
   H      -11.04836        -3.29426        -4.21132
   H      -16.89220        -4.11248        -4.41741
   H      -15.38218         0.83780        -5.66698
   H      -12.36166         1.02389        -5.11627
   H      -11.70234         7.64176        -7.10162
   H      -11.06209         6.03544        -7.50944
   H      -11.16395         6.56101        -5.80103
   H      -15.56753         6.24146        -7.16554
   H      -17.21698         3.69553        -6.68539
   H      -17.85125         5.32273        -7.25048
*
