# ORCA input file
# SCF done       -244.373597747565          0.000996932733
! CAM-B3LYP def2-SVP def2/J RIJCOSX Grid4 TightSCF
%maxcore 5000
%tddft
    Mode sTDDFT
    Ethresh 5.0
    maxcore 5000
end

%pal
  nprocs 6
  end
* xyz 0 1
   C       14.69930        -2.40318       -13.81366
   C       14.71084        -3.41252       -14.73550
   F       15.39399        -3.25137       -15.88605
   C       14.03582        -4.62287       -14.53320
   C       13.33834        -4.80325       -13.37075
   C       13.29339        -3.79641       -12.38572
   C       13.98599        -2.57197       -12.61127
   C       13.95109        -1.54436       -11.63859
   C       13.25518        -1.74225       -10.47822
   C       12.57385        -2.97306       -10.25375
   C       12.58048        -3.97599       -11.17770
   C       11.93996        -2.93774        -8.91834
   O       11.24189        -3.78750        -8.40811
   C       12.38535        -1.66117        -8.31091
   C       13.02855        -0.87533        -9.32440
   C       13.20238         0.48825        -9.30896
   C       13.86138         1.21225       -10.31487
   N       14.43773         1.85683       -11.07332
   C       12.68830         1.32078        -8.29843
   N       12.25160         2.03523        -7.51209
   C       12.22007        -1.47521        -6.95986
   C       12.90336        -0.62657        -6.08612
   S       12.29339        -0.41647        -4.46144
   C       13.58636         0.61920        -3.97644
   C       14.49094         0.77993        -5.04524
   C       14.11612         0.07557        -6.22211
   N       14.91965         0.07004        -7.30233
   C       16.02098         0.77936        -7.23169
   C       16.90287         0.79083        -8.44629
   N       17.00042         2.14629        -8.97922
   C       16.37592         1.50860        -6.05875
   C       17.66569         2.27207        -5.98444
   N       18.77609         1.32123        -5.94108
   N       15.62675         1.49071        -4.98312
   C       13.73108         1.18294        -2.69637
   C       12.88338         0.94897        -1.66009
   C       13.01818         1.43749        -0.32262
   C       13.98583         2.35337         0.04481
   C       14.12296         2.73642         1.39058
   C       15.02577         3.59117         2.01261
   C       16.05579         4.48641         1.41500
   C       17.36816         3.73878         1.09138
   N       17.14810         2.69475         0.10789
   C       15.55919         5.23634         0.16260
   N       16.20866         6.53763         0.10114
   C       14.74402         3.52836         3.42908
   C       15.36983         4.08905         4.47895
   C       14.87985         3.90622         5.87161
   C       13.68250         3.00808         5.99731
   C       13.09380         2.42445         4.93925
   C       13.59064         2.64084         3.63046
   C       13.23215         2.15545         2.39248
   C       12.21934         1.25464         1.98122
   C       12.11786         0.91910         0.67347
   C       14.54035         5.22355         6.52004
   C       14.48937         6.39147         5.86934
   C       14.15401         7.64675         6.44947
   S       13.54418         7.87729         8.04780
   C       13.44338         9.60762         7.88939
   C       13.86146         9.98693         6.60222
   C       14.27540         8.88129         5.80400
   N       14.77597         9.06383         4.56793
   C       14.79158        10.28607         4.10115
   C       15.41811        10.48965         2.75157
   N       15.80611         9.23353         2.13985
   C       14.26738        11.38565         4.85938
   C       14.17304        12.78948         4.32022
   N       15.37784        13.53610         4.66286
   N       13.84790        11.22797         6.08703
   C       12.98856        10.41585         8.94451
   C       13.01183        11.77997         8.87956
   C       12.58822        12.61418         9.92590
   C       12.60449        13.98413         9.91297
   C       12.56873        14.74887        11.18287
   O       12.23659        14.33983        12.27345
   C       13.09274        16.08793        10.83989
   C       13.36259        17.14103        11.66404
   C       13.90181        18.32661        11.11514
   C       14.15319        18.39544         9.71403
   C       14.70046        19.57637         9.17619
   C       14.97588        20.62756        10.00565
   C       14.73351        20.58042        11.38486
   C       14.20259        19.44144        11.92365
   F       15.50032        21.75629         9.49234
   C       13.85272        17.29161         8.88139
   C       13.32813        16.15612         9.43567
   C       12.88636        14.89974         8.83440
   C       12.60933        14.70564         7.50367
   C       11.81409        13.64544         7.01772
   N       11.09771        12.86576         6.57369
   C       12.99091        15.59234         6.48038
   N       13.32289        16.24528         5.59483
   H       15.22886        -1.48297       -14.00541
   H       14.08050        -5.38391       -15.29603
   H       12.80988        -5.72759       -13.19143
   H       14.48556        -0.62789       -11.83393
   H       12.05139        -4.89864       -10.99129
   H       11.50651        -2.15179        -6.49788
   H       16.50127         0.05794        -9.16401
   H       17.90654         0.48273        -8.13769
   H       16.10164         2.44654        -9.34519
   H       17.65471         2.15939        -9.75390
   H       17.61939         2.93386        -5.10658
   H       17.76966         2.86776        -6.89449
   H       18.73640         0.78350        -5.08074
   H       19.65753         1.82221        -5.95329
   H       14.60593         1.80759        -2.58475
   H       12.03931         0.29395        -1.84548
   H       14.66256         2.76169        -0.68612
   H       16.31207         5.24791         2.15930
   H       17.79845         3.36186         2.03545
   H       18.05903         4.46800         0.66233
   H       16.62534         1.92796         0.51794
   H       18.03236         2.32906        -0.22508
   H       14.46013         5.30257         0.18896
   H       15.85148         4.67202        -0.72412
   H       15.80967         7.16325         0.79599
   H       16.05389         6.96012        -0.80760
   H       16.25459         4.69979         4.35767
   H       15.69931         3.46404         6.46370
   H       13.30962         2.85854         6.99895
   H       12.23829         1.77871         5.07457
   H       11.54426         0.84288         2.71695
   H       11.35352         0.22890         0.34677
   H       14.29729         5.17850         7.57346
   H       14.72615         6.45643         4.81594
   H       16.26426        11.18693         2.88946
   H       14.69681        10.98301         2.08820
   H       16.14302         8.60229         2.85906
   H       16.54184         9.37859         1.45812
   H       13.33222        13.27036         4.82381
   H       13.95991        12.76279         3.24039
   H       16.14787        13.28532         4.05231
   H       15.20720        14.52988         4.56000
   H       12.60752         9.91685         9.82659
   H       13.42031        12.22113         7.98328
   H       12.31455        12.15549        10.87014
   H       13.16721        17.07225        12.72373
   H       14.89779        19.64970         8.11808
   H       14.97071        21.44106        11.98988
   H       14.00716        19.38059        12.98373
   H       14.05555        17.36845         7.82467
*
