# ORCA input file
# SCF done       -207.898535289976          0.000927330081
! CAM-B3LYP def2-SVP def2/J RIJCOSX Grid4 TightSCF
%maxcore 5000
%tddft
    Mode sTDDFT
    Ethresh 5.0
    maxcore 5000
end

%pal
  nprocs 6
  end
* xyz 0 1
   C       -0.43059        -6.43652         2.03739
   C       -1.76570        -6.40413         1.66304
   C       -2.49300        -5.22173         1.69479
   C       -1.90246        -4.03224         2.09394
   C       -0.56919        -4.05219         2.46813
   C        0.17271        -5.25739         2.44850
   C        1.52992        -4.99071         2.90853
   C        2.57310        -5.87109         2.92384
   C        2.48381        -7.20897         2.47742
   N        2.47412        -8.30266         2.13189
   C        3.88645        -5.56766         3.34990
   N        4.97298        -5.39822         3.67602
   C        1.54479        -3.60022         3.36685
   C        0.31775        -2.97792         2.87343
   C        0.16115        -1.64178         2.63289
   C        1.23034        -0.72494         2.69584
   N        2.08222         0.04023         2.61589
   C       -1.04828        -1.05292         2.21086
   N       -2.02507        -0.53551         1.90289
   C        2.44515        -3.04107         4.21960
   C        2.25940        -1.85519         4.99134
   N        3.28571        -1.09311         5.32537
   C        2.78134        -0.08753         6.06032
   C        1.32390        -0.24246         6.25046
   C        0.79875         0.84317         7.09196
   O       -0.33974         1.02061         7.47712
   C        1.99240         1.66852         7.33913
   C        3.18185         1.05800         6.70120
   N        4.28594         1.80635         6.94026
   C        3.86941         2.81527         7.66249
   C        2.44516         2.79180         7.94995
   C        0.97193        -1.37888         5.57306
   C       -0.24224        -2.12916         5.51048
   C       -1.53193        -1.73097         5.58817
   C       -2.12400        -0.42990         5.64102
   C       -1.54907         0.77479         5.17489
   C       -2.16515         2.04307         5.44593
   N       -1.53144         3.17732         5.09718
   C       -0.38583         3.10112         4.48879
   C        0.16397         1.85541         4.12076
   N       -0.41505         0.73455         4.44534
   C       -3.40318         2.12446         6.12466
   C       -4.02541         0.90568         6.49847
   C       -3.40837        -0.35088         6.23814
   N       -4.04054        -1.49303         6.58798
   C       -5.20313        -1.41165         7.16551
   C       -5.81567        -0.16440         7.42944
   N       -5.23660         0.95224         7.09592
   C       -4.08848         3.32803         6.46693
   C       -3.87180         4.57494         5.97574
   C       -4.63638         5.72306         6.30348
   N       -4.14552         6.92438         6.01540
   C       -5.01976         7.81916         6.49496
   C       -6.15655         7.15579         7.15824
   C       -7.10755         8.16041         7.67104
   O       -8.11114         7.98273         8.33272
   C       -6.52034         9.42460         7.21545
   C       -5.23587         9.17863         6.52334
   N       -4.70284        10.33943         6.08212
   C       -5.56396        11.26830         6.42994
   C       -6.72682        10.76537         7.12835
   C       -5.95883         5.80656         6.98813
   C       -6.84719         4.73696         7.29694
   C       -7.92998         4.89965         8.09889
   C       -8.80928         3.84368         8.43833
   C      -10.02289         4.01697         9.04158
   C      -10.75969         3.00967         9.79280
   C      -10.56390         1.65374         9.77168
   C       -9.61841         0.97632         8.97880
   N       -8.87179         0.34356         8.37648
   C      -11.30718         0.73029        10.53829
   N      -11.87057        -0.07906        11.12543
   C      -11.72745         3.72455        10.61290
   C      -11.67907         5.10096        10.29007
   C      -12.48244         6.01094        10.95633
   C      -13.33708         5.54137        11.94260
   C      -13.39592         4.18967        12.25263
   C      -12.59527         3.26907        11.59405
   C      -10.73292         5.28313         9.20045
   C      -10.69263         6.33953         8.33416
   C      -11.42981         7.52985         8.51398
   N      -12.01231         8.51232         8.61952
   C      -10.02853         6.31318         7.08670
   N       -9.59157         6.30362         6.02589
   H        0.11512        -7.36524         2.00963
   H       -2.24547        -7.31671         1.34439
   H       -3.53223        -5.22624         1.40418
   H       -2.47242        -3.11743         2.12098
   H        3.38872        -3.53964         4.39971
   H        4.56135         3.57026         7.99287
   H        1.91215         3.52335         8.52443
   H       -0.08199        -3.20145         5.44233
   H       -2.27322        -2.51682         5.67961
   H        0.11045         4.03155         4.25156
   H        1.07896         1.78719         3.54601
   H       -5.69050        -2.34287         7.41887
   H       -6.79279        -0.09586         7.88785
   H       -4.87627         3.16276         7.18774
   H       -3.03899         4.75565         5.31109
   H       -5.37073        12.30089         6.19630
   H       -7.54741        11.35592         7.48472
   H       -6.69062         3.78351         6.81330
   H       -8.10961         5.87004         8.54177
   H       -8.44324         2.83750         8.28286
   H      -12.43951         7.06328        10.72705
   H      -13.96428         6.23919        12.47590
   H      -14.07142         3.84680        13.02135
   H      -12.65106         2.22414        11.85160
*
