# ORCA input file
# SCF done       -220.994011905434          0.000337335760
! CAM-B3LYP def2-SVP def2/J RIJCOSX Grid4 TightSCF
%maxcore 5000
%tddft
    Mode sTDDFT
    Ethresh 5.0
    maxcore 5000
end

%pal
  nprocs 6
  end
* xyz 0 1
   C        6.08302         0.72481        -7.52820
   C        7.19706         0.90062        -6.72225
   C        7.09175         0.87694        -5.33756
   C        5.86658         0.68557        -4.71847
   C        4.74376         0.51333        -5.51280
   C        4.85041         0.52575        -6.92406
   C        3.54153         0.27554        -7.50374
   C        3.21170         0.32144        -8.82569
   C        4.12054         0.67096        -9.85123
   N        4.80347         0.95268       -10.72848
   C        1.93545         0.04977        -9.37194
   N        0.94523        -0.17393        -9.90626
   C        2.65240        -0.06284        -6.38368
   C        3.35250         0.31810        -5.15289
   C        2.77852         0.59901        -3.94684
   C        1.38901         0.64171        -3.71229
   N        0.27055         0.73668        -3.47183
   C        3.51082         0.96744        -2.79553
   N        4.05108         1.25507        -1.82589
   C        1.51003        -0.76428        -6.50849
   C        0.71244        -1.39463        -5.47276
   C       -0.66838        -1.19803        -5.45999
   C       -1.47173        -0.27307        -6.29640
   O       -1.09613         0.50204        -7.13714
   N       -2.78969        -0.46106        -5.89500
   C       -2.91110        -1.36419        -4.84334
   O       -3.93401        -1.68828        -4.30085
   C       -1.52128        -1.81924        -4.55344
   C       -1.04328        -2.67736        -3.58019
   C        0.33085        -2.88952        -3.57879
   C        1.19500        -2.28544        -4.49494
   C        2.60225        -2.70234        -4.35245
   O        3.54224        -2.38271        -5.02406
   S        2.75433        -3.82081        -2.96163
   C        0.98973        -3.78417        -2.60514
   O        0.48527        -4.40002        -1.72010
   C       -3.84396         0.25631        -6.48506
   C       -5.05977        -0.28612        -6.62786
   N       -6.18962         0.28453        -7.13319
   C       -6.37987         1.54095        -7.67269
   C       -5.45419         2.30181        -8.33031
   S       -6.10487         3.77313        -8.93073
   C       -7.65317         3.38406        -8.31787
   C       -7.66957         2.18484        -7.66286
   N       -8.83585         1.65953        -7.11623
   C       -8.94726         0.84050        -6.05570
   C      -10.14345         0.35211        -5.63497
   C      -10.34871        -0.53957        -4.55038
   C      -11.60629        -0.57666        -3.90467
   C      -12.84363         0.13636        -4.25585
   O      -13.07870         0.90266        -5.15414
   N      -13.80702        -0.26553        -3.30350
   C      -13.27462        -1.16345        -2.36926
   O      -13.87050        -1.68232        -1.46517
   C      -11.85822        -1.34478        -2.77061
   C      -10.88696        -2.13838        -2.18638
   C       -9.67484        -2.19823        -2.86254
   C       -9.40805        -1.47267        -4.02525
   C       -8.18653        -1.92351        -4.70126
   O       -7.81090        -1.66872        -5.81652
   S       -7.29746        -3.08567        -3.66779
   C       -8.58839        -3.10243        -2.42600
   O       -8.54730        -3.76055        -1.43263
   C      -15.09038         0.23262        -3.34718
   C      -16.06845        -0.07003        -2.47398
   C      -17.37255         0.48112        -2.59101
   C      -18.33961         0.41001        -1.63469
   C      -19.76881         0.61175        -1.86237
   C      -20.34990         1.28185        -2.90265
   C      -19.64573         1.95258        -3.92604
   N      -19.13647         2.52195        -4.78282
   C      -21.74398         1.42875        -3.07063
   N      -22.86402         1.58283        -3.26653
   C      -20.46076        -0.04377        -0.76169
   C      -19.50679        -0.48143         0.18655
   C      -19.90574        -1.16010         1.32639
   C      -21.25875        -1.39746         1.51612
   C      -22.19729        -0.96008         0.59174
   C      -21.81095        -0.28007        -0.55323
   C      -18.18731        -0.06430        -0.26185
   C      -17.07623         0.07532         0.52362
   C      -17.00642        -0.36499         1.86343
   N      -16.89594        -0.71577         2.95002
   C      -15.91856         0.79134         0.14488
   N      -14.98842         1.42203        -0.08699
   H        6.18521         0.73443        -8.60095
   H        8.16219         1.05078        -7.18132
   H        7.97622         1.00520        -4.73272
   H        5.79920         0.65603        -3.64322
   H        1.11029        -0.91361        -7.50388
   H       -1.68644        -3.15637        -2.85953
   H       -3.56027         1.24411        -6.80521
   H       -5.23226        -1.29251        -6.27465
   H       -7.01020        -0.30355        -7.07005
   H       -4.43368         2.06472        -8.54368
   H       -8.47338         4.05895        -8.45856
   H       -9.70016         1.97951        -7.53669
   H       -8.03455         0.63469        -5.51964
   H      -11.04192         0.71624        -6.11368
   H      -11.06403        -2.71110        -1.29107
   H      -15.23643         0.94364        -4.15190
   H      -15.87020        -0.77068        -1.67784
   H      -17.62247         0.91954        -3.54724
   H      -19.18565        -1.51048         2.04791
   H      -21.58395        -1.93148         2.39574
   H      -23.24515        -1.15439         0.76187
   H      -22.55242         0.04741        -1.26335
*
