# ORCA input file
# SCF done       -200.072456841611          0.000737051776
! CAM-B3LYP def2-SVP def2/J RIJCOSX Grid4 TightSCF
%maxcore 5000
%tddft
    Mode sTDDFT
    Ethresh 5.0
    maxcore 5000
end

%pal
  nprocs 6
  end
* xyz 0 1
   C        4.20221        -6.12313         8.58568
   C        3.49920        -7.30627         8.61828
   C        3.41556        -8.14574         9.74908
   N        3.31637        -8.88162        10.62434
   C        2.70208        -7.80393         7.58065
   N        1.99089        -8.27508         6.80745
   C        4.81539        -5.50201         9.76066
   C        5.01924        -4.13583         9.49661
   C        5.55589        -3.28697        10.44110
   C        5.90915        -3.81597        11.67774
   C        5.72419        -5.17723        11.94235
   C        5.17333        -6.02834        10.98950
  Cl        6.18276        -5.82069        13.46680
  Cl        6.57784        -2.79127        12.88153
   C        4.59436        -3.83965         8.10950
   O        4.56817        -2.76595         7.55394
   C        4.24071        -5.15641         7.52084
   C        4.06522        -5.23696         6.16440
   C        4.11809        -6.35909         5.31691
   C        4.62814        -7.62853         5.59709
   C        4.43780        -8.45979         4.46765
   C        4.79602        -9.80936         4.37649
   N        5.04232       -10.92899         4.30976
   C        3.76042        -7.73406         3.49386
   C        3.56038        -6.40968         3.98046
   C        2.85958        -5.42706         3.26225
   C        1.75862        -5.80228         2.32761
   C        1.46789        -4.67385         1.56032
   C        2.25542        -3.61820         2.04297
   C        3.08133        -4.07173         3.10017
   C        2.23437        -2.30702         1.54738
   N        2.21398        -1.23557         1.13608
   C        1.07437        -7.00638         2.40690
   C        1.13231        -7.83499         3.52260
   C        0.73688        -9.16923         3.58871
   N        0.83024        -9.85465         4.78107
   C        0.50033       -11.14335         4.55978
   C        0.37261       -12.38101         5.16010
   C       -0.05486       -13.26816         4.14820
   N       -0.19275       -12.57720         2.96159
   C        0.15106       -11.27896         3.17079
   C        0.30088       -10.05585         2.56374
   C       -0.30680       -14.65194         4.20684
   C       -0.20668       -15.41185         5.33845
   C       -0.39976       -16.80517         5.43197
   C       -0.75227       -17.46236         6.59065
   C       -1.07530       -18.81674         6.26958
   C       -1.51502       -19.78395         7.18324
   N       -1.89716       -20.57328         7.92360
   C       -0.92613       -19.01151         4.90953
   C       -0.46592       -17.80028         4.32963
   C       -0.01198       -17.64325         3.03259
   C       -0.38863       -18.43615         1.84594
   C        0.47916       -18.09414         0.83435
   C        1.38547       -17.09564         1.32158
   C        1.06571       -16.79850         2.63058
   C        2.40949       -16.50853         0.56665
   N        3.22748       -16.00954        -0.06539
   C       -1.53069       -19.26019         1.68062
   C       -2.62357       -19.26659         2.49331
   C       -3.68516       -20.18045         2.33309
   C       -4.68948       -20.35073         3.24782
   C       -5.78942       -21.29252         3.16524
   C       -6.15870       -22.03351         2.07360
   C       -7.25525       -22.92214         2.05319
   N       -8.13020       -23.65979         1.96862
   C       -5.52461       -21.99820         0.81342
   N       -5.06919       -22.01476        -0.24051
   C       -6.47510       -21.28092         4.45502
   C       -5.86871       -20.32184         5.28546
   C       -4.75759       -19.66980         4.56468
   O       -4.05441       -18.77346         4.98486
   C       -6.30324       -20.09582         6.57559
   C       -7.37354       -20.84326         7.05052
   C       -7.98521       -21.79917         6.22998
   C       -7.54206       -22.02507         4.93133
  Cl       -9.30511       -22.71715         6.82967
  Cl       -7.94509       -20.59358         8.64832
   H        5.69598        -2.23965        10.22518
   H        5.05118        -7.07290        11.22552
   H        3.93973        -4.27426         5.68137
   H        5.14695        -7.92524         6.49004
   H        3.55397        -8.07309         2.49677
   H        0.71541        -4.59406         0.79895
   H        3.82831        -3.47072         3.58305
   H        0.44063        -7.28831         1.57572
   H        1.46740        -7.41057         4.45914
   H        1.18398        -9.42747         5.63604
   H        0.56047       -12.63792         6.18198
   H       -0.45440       -12.99592         2.08529
   H        0.13585        -9.79124         1.53905
   H       -0.60944       -15.12130         3.28028
   H       -0.02893       -14.90782         6.27947
   H       -0.83291       -17.03052         7.57048
   H       -1.02456       -19.95047         4.39988
   H        0.46788       -18.46829        -0.17244
   H        1.62324       -16.15068         3.28017
   H       -1.52587       -19.90157         0.80615
   H       -2.69029       -18.57135         3.31542
   H       -3.65834       -20.81672         1.45749
   H       -5.81805       -19.36096         7.19820
   H       -8.03413       -22.77326         4.33185
*
