# ORCA input file
# SCF done       -206.383957345620          0.001323377208
! CAM-B3LYP def2-SVP def2/J RIJCOSX Grid4 TightSCF
%maxcore 5000
%tddft
    Mode sTDDFT
    Ethresh 5.0
    maxcore 5000
end

%pal
  nprocs 6
  end
* xyz 0 1
   C        5.28317        -4.66966         7.57453
   C        4.27136        -3.75569         7.44881
   C        4.25104        -2.50398         8.10210
   N        4.17639        -1.47421         8.60205
   C        3.10395        -3.93489         6.67553
   N        2.12901        -4.01465         6.07397
   C        6.47041        -4.51425         8.40915
   C        7.22321        -5.69987         8.35509
   C        8.40971        -5.84289         9.04532
   C        8.85830        -4.77539         9.81247
   C        8.11521        -3.58967         9.87277
   C        6.92095        -3.45026         9.17471
  Cl        8.68294        -2.27680        10.82152
  Cl       10.32759        -4.91245        10.68819
   C        6.54923        -6.68558         7.48313
   O        6.93265        -7.80744         7.24075
   C        5.35365        -5.98237         6.95133
   C        4.57613        -6.40735         5.91615
   C        4.57565        -7.68637         5.29514
   C        4.77012        -8.91533         5.87421
   C        4.51699        -9.93446         4.88828
   C        4.63401       -11.31344         5.10808
   N        4.70205       -12.44595         5.28157
   C        4.13472        -9.33683         3.71173
   C        4.14877        -7.91617         3.90492
   C        3.95698        -6.95975         2.93175
   C        3.33776        -7.16927         1.59279
   C        3.66551        -6.07560         0.82267
   C        4.39086        -5.14938         1.63268
   C        4.53182        -5.66289         2.90986
   C        4.89839        -3.92236         1.18089
   N        5.31690        -2.92325         0.80204
   C        2.48379        -8.20933         1.18088
   C        1.74306        -9.04517         1.97718
   C        1.00433       -10.11128         1.44091
   C        0.19847       -10.93976         2.17594
   C       -0.45250       -12.05411         1.62363
   O       -1.29670       -12.80470         2.38076
   C       -1.74968       -13.83959         1.62855
   C       -1.18227       -13.75687         0.35143
   C       -0.36596       -12.62007         0.33996
   O        0.36430       -12.16579        -0.69357
   O       -1.34345       -14.56809        -0.72168
   C       -2.67268       -14.78586         2.11714
   C       -3.30302       -14.71679         3.32318
   C       -4.23420       -15.69066         3.76423
   C       -4.31258       -16.99559         3.34815
   C       -5.31483       -17.66924         4.12494
   C       -5.67979       -19.01134         3.94620
   N       -5.97017       -20.10935         3.78264
   C       -5.85131       -16.79083         5.03857
   C       -5.24715       -15.51321         4.83812
   C       -5.66880       -14.32568         5.38926
   C       -6.58390       -14.16355         6.54059
   C       -6.93880       -12.84130         6.59895
   C       -6.26914       -12.13694         5.53499
   C       -5.48404       -13.01895         4.83283
   C       -6.40870       -10.76795         5.26769
   N       -6.51491        -9.64674         5.04711
   C       -6.92469       -15.17470         7.48082
   C       -8.02364       -15.13601         8.28222
   C       -8.31556       -16.18756         9.17803
   C       -9.44044       -16.27231         9.95150
   C       -9.79493       -17.35112        10.85562
   C       -9.06120       -18.47465        11.13375
   C       -9.46958       -19.48653        12.02979
   N       -9.73825       -20.34363        12.74393
   C       -7.80174       -18.79191        10.58206
   N       -6.77911       -19.12202        10.17789
   C      -11.10009       -17.03136        11.43034
   C      -11.53828       -15.79914        10.91468
   C      -10.52791       -15.26260         9.97863
   O      -10.59338       -14.21624         9.37066
   C      -12.74947       -15.24595        11.27740
   C      -13.54753       -15.93921        12.17854
   C      -13.11939       -17.16679        12.69861
   C      -11.89782       -17.71970        12.33048
  Cl      -14.11450       -18.01417        13.81146
  Cl      -15.06265       -15.28785        12.65338
   H        8.97104        -6.76214         8.98796
   H        6.37987        -2.52072         9.24135
   H        3.88291        -5.69602         5.48449
   H        5.02796        -9.11564         6.89547
   H        3.97049        -9.83747         2.77721
   H        3.37680        -5.90026        -0.19665
   H        5.11112        -5.21410         3.69348
   H        2.35756        -8.30397         0.10789
   H        1.70965        -8.88441         3.04634
   H        1.10349       -10.30361         0.38208
   H        0.03938       -10.76193         3.23027
   H        0.24812       -12.77127        -1.43956
   H       -1.93819       -15.29574        -0.50966
   H       -2.91795       -15.59418         1.44116
   H       -3.08132       -13.88129         3.97016
   H       -3.70110       -17.48321         2.61281
   H       -6.67126       -17.00634         5.69474
   H       -7.56711       -12.37183         7.33185
   H       -4.93111       -12.78489         3.94419
   H       -6.25713       -16.02406         7.55764
   H       -8.72301       -14.31735         8.21192
   H       -7.59034       -16.98988         9.22792
   H      -13.06604       -14.29972        10.86770
   H      -11.60413       -18.66709        12.75166
*
