# ORCA input file
# SCF done       -193.649568062679          0.000837139917
! CAM-B3LYP def2-SVP def2/J RIJCOSX Grid4 TightSCF
%maxcore 5000
%tddft
    Mode sTDDFT
    Ethresh 5.0
    maxcore 5000
end

%pal
  nprocs 6
  end
* xyz 0 1
   C        2.32375         5.34146         2.55798
   C        1.63154         6.51746         2.44097
   C        2.13225         7.76610         2.87353
   N        2.48420         8.81532         3.17710
   C        0.32058         6.67081         1.96153
   N       -0.74617         6.92210         1.61281
   C        3.57450         5.19426         3.29863
   C        3.74995         3.81892         3.63171
   C        4.82167         3.38515         4.35792
   C        5.79299         4.32127         4.77788
   C        5.63577         5.69448         4.42955
   C        4.51016         6.11623         3.68520
   C        6.61914         6.61667         4.84147
   C        7.70514         6.20466         5.56502
   C        7.85806         4.85310         5.90892
   C        6.92205         3.93140         5.52443
   C        2.65921         3.03407         3.03599
   O        2.43489         1.85293         3.13740
   C        1.89565         4.00957         2.18721
   C        1.18508         3.48403         1.15389
   C        0.67414         4.06407        -0.02878
   O        0.63600         5.39312        -0.27785
   C        0.17394         5.58976        -1.52765
   C       -0.07689         4.36161        -2.12868
   C        0.23184         3.37627        -1.16410
   C        0.14211         1.98003        -1.29176
   N        0.08664         0.83962        -1.37872
   C       -0.61293         4.14334        -3.49907
   F       -1.63696         4.96767        -3.78012
   F        0.31604         4.37323        -4.45112
   F       -1.05390         2.89971        -3.69190
   C       -0.01756         6.92131        -2.00024
   N       -0.35535         7.93312        -1.12837
   C       -0.45835         9.07923        -1.84347
   C       -0.74841        10.43704        -1.75187
   C       -0.54591        10.95952        -3.03601
   N       -0.15354         9.94799        -3.89018
   C       -0.11732         8.78676        -3.19364
   C        0.13979         7.42262        -3.29528
   C       -0.62340        12.29426        -3.49904
   C       -1.20394        13.33425        -2.84611
   C       -1.14546        14.64352        -3.38570
   O       -0.38273        14.89040        -4.45702
   C       -0.45772        16.19607        -4.77095
   C       -1.32206        16.82608        -3.87515
   C       -1.76362        15.83463        -2.97326
   C       -2.63798        15.96001        -1.88358
   N       -3.34607        16.02404        -0.98494
   C       -1.67754        18.27256        -3.87623
   F       -0.57962        19.05516        -3.91672
   F       -2.41514        18.61080        -4.94684
   F       -2.36855        18.64005        -2.79580
   C        0.31382        16.77207        -5.81134
   C        1.34880        16.20390        -6.48905
   C        2.20243        16.93292        -7.41997
   C        1.85649        18.04165        -8.14116
   C        2.72825        18.68667        -9.04475
   N        3.39903        19.24668        -9.78846
   C        0.57611        18.63859        -8.13536
   N       -0.45004        19.14744        -8.20283
   C        3.47064        16.22090        -7.49813
   C        3.33082        14.97849        -6.81674
   C        1.96599        14.86022        -6.27420
   O        1.47147        13.86477        -5.79334
   C        4.36412        14.09158        -6.71611
   C        5.61327        14.42282        -7.28599
   C        5.76311        15.66837        -7.96258
   C        4.67075        16.55974        -8.06476
   C        7.01803        15.99231        -8.51731
   C        8.07532        15.13072        -8.40776
   C        7.92685        13.90525        -7.74085
   C        6.72169        13.55810        -7.19351
   H        4.93033         2.33932         4.60326
   H        4.42606         7.15984         3.42576
   H        6.49574         7.65649         4.57670
   H        8.45278         6.91848         5.87617
   H        8.72119         4.54578         6.47990
   H        7.03463         2.88967         5.78617
   H        1.10025         2.40067         1.17285
   H       -0.61241         7.77983        -0.15933
   H       -1.03581        10.99543        -0.88507
   H        0.03161        10.07418        -4.87091
   H        0.43122         6.86263        -4.15960
   H       -0.16526        12.49844        -4.45938
   H       -1.73278        13.21112        -1.91423
   H        0.08216        17.81025        -6.00960
   H        4.23468        13.15362        -6.19657
   H        4.81556        17.49804        -8.57626
   H        7.12757        16.93608        -9.03075
   H        9.03280        15.38878        -8.83445
   H        8.77211        13.23805        -7.66276
   H        6.60148        12.61618        -6.67844
*
