# ORCA input file
# SCF done       -216.765699857662          0.000510805105
! CAM-B3LYP def2-SVP def2/J RIJCOSX Grid4 TightSCF
%maxcore 5000
%tddft
    Mode sTDDFT
    Ethresh 5.0
    maxcore 5000
end

%pal
  nprocs 6
  end
* xyz 0 1
   C        5.48696         1.48620        -4.72285
   C        5.83391         1.34209        -6.05832
   F        5.77815         2.41010        -6.85915
   C        6.23737         0.11352        -6.58395
   F        6.56314         0.02152        -7.87750
   C        6.30247        -1.01131        -5.77782
   C        5.95539        -0.86667        -4.44893
   C        5.54942         0.36580        -3.90903
   C        5.25785         0.18560        -2.48573
   C        4.88271         1.18307        -1.62660
   C        4.70489         2.53103        -2.00953
   N        4.54108         3.63946        -2.25571
   C        4.63343         1.03263        -0.24471
   N        4.42321         0.99831         0.88328
   C        5.47106        -1.21687        -2.17584
   C        5.93442        -1.89430        -3.39063
   O        6.23809        -3.06670        -3.51828
   C        5.24394        -1.81896        -0.96335
   C        5.42847        -3.14867        -0.55876
   C        5.11231        -3.56937         0.74164
   C        5.38656        -4.90532         0.94650
   C        5.92843        -5.52633        -0.20850
   S        6.07825        -4.46709        -1.53387
   C        6.19018        -6.87937         0.10110
   C        5.81737        -7.11978         1.44311
   C        5.30020        -5.88819         2.01620
   C        4.84024        -5.69282         3.28410
   C        4.81853        -6.72309         4.24951
   N        4.80338        -7.54773         5.04522
   C        4.35451        -4.44138         3.72124
   N        3.95640        -3.42783         4.07897
   C        6.04915        -8.42757         1.84249
   C        6.60314        -9.19474         0.82242
   S        6.83295        -8.26897        -0.65512
   C        7.00248       -10.55903         0.86008
   C        6.83687       -11.41614         1.97630
   C        7.32356       -12.76602         1.96188
   N        7.15501       -13.54489         3.05002
   C        6.54925       -13.07729         4.09178
   C        6.05436       -11.74515         4.10099
   N        6.20473       -10.96590         3.08053
   F        5.41566       -11.26691         5.15872
   F        6.40033       -13.87867         5.13823
   C        7.98571       -13.34499         0.85494
   C        8.11275       -12.50705        -0.27644
   C        7.62869       -11.14968        -0.26146
   N        7.85627       -10.53440        -1.42291
   S        8.59370       -11.54615        -2.42704
   N        8.66822       -12.81132        -1.45093
   C        8.49586       -14.66900         0.89996
   C        9.15893       -15.33365        -0.12810
   C        9.55991       -16.60520         0.25045
   C        9.20212       -16.91627         1.58122
   S        8.36251       -15.64155         2.35211
   C        9.67733       -18.21375         1.87113
   C       10.32509       -18.73390         0.72765
   C       10.26927       -17.73609        -0.32761
   C       10.77391       -17.83427        -1.59045
   C       11.43686       -18.99424        -2.04585
   N       11.96913       -19.93755        -2.42100
   C       10.65977       -16.78513        -2.52791
   N       10.56523       -15.93814        -3.29465
   C       10.82179       -20.01466         0.92698
   C       10.60438       -20.46928         2.22175
   S        9.70612       -19.29478         3.18383
   C       10.95763       -21.74540         2.71203
   C       11.05773       -22.18729         3.99658
   C       10.97025       -23.64720         4.27579
   O       11.04264       -24.54616         3.47389
   C       10.71342       -23.74091         5.73125
   C       10.78229       -22.45848         6.30519
   C       10.54768       -22.28693         7.65957
   C       10.25006       -23.41249         8.41345
   C       10.19580       -24.68463         7.84008
   C       10.42780       -24.86231         6.48542
   F        9.91300       -25.74229         8.60735
   F       10.00649       -23.27199         9.71942
   C       11.15281       -21.49848         5.26603
   C       11.75856       -20.29065         5.48806
   C       12.37573       -19.53725         4.46723
   N       12.92374       -18.92191         3.66837
   C       11.92134       -19.71574         6.76577
   N       12.05947       -19.20050         7.78124
   H        5.18168         2.45709        -4.36911
   H        6.61316        -1.96271        -6.17914
   H        4.85562        -1.18970        -0.17162
   H        4.70484        -2.89751         1.47641
   H        5.84131        -8.83233         2.81479
   H        9.32519       -14.87766        -1.08662
   H       11.34946       -20.59711         0.19328
   H       11.09592       -22.51013         1.95279
   H       10.57584       -21.32386         8.14304
   H       10.38604       -25.84452         6.04230
*
