# ORCA input file
# SCF done       -159.884273773183          0.000423112915
! CAM-B3LYP def2-SVP def2/J RIJCOSX Grid4 TightSCF
%maxcore 5000
%tddft
    Mode sTDDFT
    Ethresh 5.0
    maxcore 5000
end

%pal
  nprocs 6
  end
* xyz 0 1
   C        3.45286         0.19670         1.11458
   C        4.53846         0.93854         0.65790
   C        4.70099         2.35371         1.11245
   C        5.47420         0.36670        -0.21877
   C        6.63710         1.16759        -0.71029
   C        5.31718        -0.95355        -0.62779
   C        4.23996        -1.68390        -0.16826
   C        3.29630        -1.11637         0.70419
   C        2.28062        -2.11445         1.01235
   C        1.12132        -1.89409         1.70956
   C        0.77459        -0.65667         2.28988
   N        0.44305         0.32369         2.78722
   C        0.10306        -2.85125         1.90186
   N       -0.77978        -3.56505         2.07545
   C        2.67373        -3.35580         0.37082
   C        3.87951        -3.08337        -0.45934
   O        4.47550        -3.84558        -1.18996
   C        2.17420        -4.59172         0.66764
   C        2.50894        -5.83797         0.08630
   C        2.77319        -6.04268        -1.25001
   C        3.08974        -7.37235        -1.62321
   C        3.06877        -8.29663        -0.59983
  Si        2.59035        -7.48510         1.01684
   C        3.35244        -9.67434        -0.72590
   C        3.25730       -10.46593         0.44387
   C        3.50440       -11.88340         0.43955
   N        3.42012       -12.57424         1.57795
   C        3.10063       -11.95912         2.69346
   C        2.83250       -10.55162         2.69372
   N        2.92021        -9.85722         1.58244
   C        2.48024        -9.89373         3.89729
   N        2.20634        -9.39160         4.88962
   C        3.02988       -12.69746         3.89964
   N        2.97020       -13.26184         4.89450
   C        3.84405       -12.59196        -0.73726
   C        3.94811       -11.80512        -1.91153
   C        3.70886       -10.37607        -1.90568
   N        3.86124        -9.85017        -3.11902
   S        4.25979       -11.00960        -4.15605
   N        4.26440       -12.24348        -3.12820
   C        4.02320       -13.98684        -0.61775
   C        4.38012       -14.84308        -1.63506
   C        4.41403       -16.21506        -1.28226
   C        4.07941       -16.51777         0.01455
  Si        3.75911       -14.91516         0.98428
   C        4.03067       -17.83432         0.53373
   C        3.54850       -18.96301        -0.05320
   C        3.89063       -20.29896         0.51007
   O        4.37899       -20.52097         1.59461
   C        3.56168       -21.25743        -0.55988
   C        2.94621       -20.57926        -1.62795
   C        2.57318       -21.28545        -2.75840
   C        2.80009       -22.65737        -2.82176
   C        3.40266       -23.33036        -1.74689
   C        3.78624       -22.61786        -0.61513
   C        3.63388       -24.80582        -1.81280
   C        2.39280       -23.41148        -4.04691
   C        2.79733       -19.17147        -1.27295
   C        1.92991       -18.28905        -1.86322
   C        1.61794       -17.01862        -1.34142
   N        1.27500       -15.99467        -0.95005
   C        1.18301       -18.58175        -3.02206
   N        0.57215       -18.76271        -3.97736
   H        2.74973         0.65475         1.79174
   H        3.89555         2.63774         1.78392
   H        4.69887         3.03216         0.26002
   H        5.64994         2.48200         1.63224
   H        7.25163         1.50165         0.12529
   H        6.29477         2.05529        -1.24126
   H        7.25496         0.57750        -1.38155
   H        6.02627        -1.41338        -1.30006
   H        1.50058        -4.66359         1.51482
   H        2.69703        -5.26708        -1.99521
   H        3.32561        -7.63216        -2.64331
   H        3.64104        -7.37439         2.02645
   H        1.24727        -7.79397         1.49653
   H        4.60651       -14.50894        -2.63545
   H        4.72387       -16.96345        -1.99986
   H        4.87178       -14.78006         1.92507
   H        2.41856       -14.99119         1.54366
   H        4.43759       -17.97507         1.53128
   H        2.11537       -20.78652        -3.59806
   H        4.25255       -23.11665         0.22129
   H        4.27045       -25.05657        -2.66075
   H        2.69077       -25.33571        -1.94240
   H        4.11002       -25.16188        -0.90347
   H        1.93850       -22.74646        -4.77605
   H        1.67564       -24.19149        -3.79402
   H        3.25582       -23.89444        -4.50424
*
