# ORCA input file
# SCF done       -246.891344112655          0.000562868630
! CAM-B3LYP def2-SVP def2/J RIJCOSX Grid4 TightSCF
%maxcore 5000
%tddft
    Mode sTDDFT
    Ethresh 5.0
    maxcore 5000
end

%pal
  nprocs 6
  end
* xyz 0 1
   C      -11.65123        -2.89233        -6.16332
   C      -11.10852        -2.38582        -7.31085
   F      -11.85166        -1.63188        -8.13164
   C       -9.76491        -2.64805        -7.64527
   F       -9.25910        -2.13896        -8.77701
   C       -8.98178        -3.41283        -6.82665
   C       -9.51152        -3.94747        -5.63642
   C      -10.87030        -3.68416        -5.29763
   C      -11.42462        -4.20946        -4.10781
   C      -10.64356        -4.97204        -3.27978
   C       -9.28689        -5.22578        -3.62518
   C       -8.72423        -4.73638        -4.76830
   C       -8.66622        -6.05161        -2.57360
   O       -7.51807        -6.45457        -2.56065
   C       -9.71079        -6.27592        -1.56247
   C      -10.93177        -5.63135        -2.00812
   C      -12.15181        -5.62968        -1.38057
   C      -13.29732        -4.97802        -1.88421
   N      -14.26556        -4.47025        -2.23492
   C      -12.46023        -6.26961        -0.16217
   N      -12.80087        -6.75923         0.81994
   C       -9.55412        -6.95702        -0.38408
   C       -8.42776        -7.60198         0.15834
   C       -8.47189        -8.21359         1.40121
   C       -7.26837        -8.79746         1.79990
   C       -6.24400        -8.64415         0.82420
   S       -6.84378        -7.75134        -0.56489
   C       -4.97555        -9.15972         1.04400
   O       -3.89716        -9.11542         0.23731
   C       -3.97129        -8.49938        -1.02856
   C       -4.76242        -9.82435         2.27972
   C       -5.78841        -9.96983         3.25395
   C       -7.05652        -9.46941         3.03596
   O       -8.14137        -9.52097         3.83575
   C       -8.07669       -10.16777         5.08632
   S       -5.16665       -10.82712         4.65814
   C       -3.58548       -10.97740         3.93088
   C       -3.54609       -10.39880         2.68360
   C       -2.55392       -11.64080         4.65714
   C       -1.23525       -11.85687         4.18795
   C       -0.24093       -12.54131         4.97810
   N        0.99490       -12.71490         4.46250
   C        1.26935       -12.26898         3.27905
   C        0.29577       -11.59828         2.50681
   N       -0.90165       -11.41018         2.95989
   F        0.57353       -11.13683         1.28704
   F        2.50870       -12.47325         2.82383
   C       -0.51597       -13.03794         6.27503
   C       -1.82870       -12.81516         6.73823
   C       -2.82162       -12.13849         5.94931
   N       -3.98672       -12.05096         6.59055
   S       -3.85090       -12.74414         8.03650
   N       -2.30981       -13.19197         7.92277
   C        0.41365       -13.72949         7.10765
   C        1.71967       -14.06405         6.84445
   C        2.37022       -14.77133         7.87711
   C        1.49349       -14.97917         8.99437
   S       -0.08728       -14.27437         8.68265
   C        1.86978       -15.67038        10.13059
   O        1.16180       -15.93189        11.25206
   C       -0.09589       -15.33562        11.47488
   C        3.18691       -16.19429        10.14302
   C        4.05040       -15.98633         9.04934
   C        3.69166       -15.27492         7.90978
   O        4.67359       -15.18604         6.98616
   C        4.57170       -14.39780         5.82335
   S        5.60245       -16.71531         9.31249
   C        5.10662       -17.26314        10.90431
   C        3.80263       -16.91436        11.17767
   C        5.99892       -18.03357        11.68566
   C        5.94725       -18.31563        13.01824
   C        6.70287       -19.49061        13.53378
   O        7.55919       -20.11471        12.95200
   C        6.13714       -19.75869        14.87257
   C        6.38818       -20.80060        15.71767
   C        5.69370       -20.87112        16.94650
   C        4.74647       -19.85779        17.27331
   C        4.05081       -19.93848        18.49633
   C        4.28627       -20.97460        19.35568
   C        5.22404       -21.97551        19.03225
   C        5.91397       -21.92600        17.85343
   F        5.43315       -22.98107        19.89314
   F        3.62389       -21.04907        20.51800
   C        4.51350       -18.78618        16.38111
   C        5.20400       -18.73439        15.20007
   C        5.19173       -17.75350        14.11637
   C        4.75627       -16.45922        14.23769
   C        4.98244       -15.45646        13.27320
   N        5.17563       -14.59165        12.54394
   C        4.09601       -15.95702        15.37707
   N        3.53147       -15.50658        16.26941
   H      -12.68160        -2.68238        -5.92213
   H       -7.95506        -3.60410        -7.09680
   H      -12.45566        -3.99125        -3.88265
   H       -7.69218        -4.94593        -5.00516
   H      -10.41988        -7.01726         0.26402
   H       -9.35759        -8.23355         2.01059
   H       -2.97864        -8.61654        -1.46110
   H       -4.20961        -7.43618        -0.94850
   H       -4.70798        -8.98619        -1.67205
   H       -9.07572       -10.07280         5.50944
   H       -7.35245        -9.68957         5.74995
   H       -7.82483       -11.22547         4.97930
   H       -2.66376       -10.38492         2.07362
   H        2.15478       -13.79293         5.90548
   H       -0.84922       -15.70337        10.77404
   H       -0.04052       -14.24667        11.41234
   H       -0.37247       -15.62560        12.48794
   H        3.85239       -14.81552         5.11395
   H        5.56544       -14.42786         5.37696
   H        4.31486       -13.36203         6.05771
   H        3.27524       -17.20303        12.06838
   H        6.79564       -18.53375        11.14378
   H        7.10546       -21.56219        15.45230
   H        3.33225       -19.17850        18.76085
   H        6.62820       -22.70015        17.62053
   H        3.78543       -18.03755        16.64998
*
