# ORCA input file
# SCF done       -212.863038592181          0.000968438200
! CAM-B3LYP def2-SVP def2/J RIJCOSX Grid4 TightSCF
%maxcore 5000
%tddft
    Mode sTDDFT
    Ethresh 5.0
    maxcore 5000
end

%pal
  nprocs 6
  end
* xyz 0 1
   C       -2.72168        -3.63212         9.32054
   C       -3.01355        -4.09804        10.57180
   F       -2.75777        -3.34481        11.64675
   C       -3.58698        -5.37492        10.74761
   F       -3.86252        -5.80342        11.98453
   C       -3.86100        -6.16758         9.66853
   C       -3.57292        -5.71499         8.36592
   C       -2.99097        -4.42529         8.18655
   C       -2.68645        -3.95371         6.88991
   C       -2.95357        -4.74786         5.80429
   C       -3.54433        -6.02900         5.99257
   C       -3.84997        -6.51127         7.23402
   C       -3.73886        -6.68960         4.69153
   O       -4.23181        -7.77702         4.50092
   C       -3.28139        -5.69302         3.67116
   C       -2.73254        -4.54142         4.37915
   C       -2.04921        -3.50362         3.81060
   C       -1.75385        -3.39793         2.43262
   N       -1.45729        -3.27351         1.33166
   C       -1.51172        -2.42129         4.54198
   N       -1.06022        -1.51998         5.08900
   C       -3.54797        -5.75900         2.34565
   C       -4.04710        -6.92110         1.65486
   C       -3.59918        -8.17627         1.89527
   C       -4.10537        -9.33667         1.24503
   C       -3.57901       -10.59371         1.54354
   C       -4.07456       -11.76460         0.94949
   N       -4.48686       -12.71930         0.46015
   C       -2.52447       -10.76290         2.45412
   N       -1.65353       -10.90552         3.18967
   C       -5.17116        -9.23274         0.31267
   C       -5.74864        -8.08144        -0.13475
   S       -5.21243        -6.50097         0.40131
   C       -6.83106        -8.11978        -1.09386
   C       -7.23203        -6.95473        -1.78123
   C       -8.26909        -6.94528        -2.78050
   N       -8.45515        -5.84472        -3.53436
   C       -7.71889        -4.78760        -3.32016
   C       -6.82265        -4.73422        -2.19763
   N       -6.60537        -5.80865        -1.48538
   C       -6.17179        -3.52563        -1.84524
   N       -5.64881        -2.54376        -1.57595
   C       -7.74782        -3.69757        -4.22984
   N       -7.68142        -2.81943        -4.96105
   C       -9.01155        -8.10349        -3.06309
   C       -8.62080        -9.27075        -2.39442
   C       -7.54102        -9.29159        -1.42798
   N       -7.37434       -10.52274        -0.93275
   S       -8.42735       -11.52468        -1.59685
   N       -9.17480       -10.48004        -2.54367
   C      -10.09048        -8.12209        -4.03778
   C      -10.20256        -9.09744        -4.96587
   C      -11.22024        -9.15940        -5.96500
   C      -11.27648       -10.25255        -6.82250
   C      -12.25368       -10.37552        -7.82393
   N      -13.05556       -10.47917        -8.63954
   C      -10.37457       -11.32422        -6.71273
   N       -9.63328       -12.19608        -6.61388
   C      -12.16968        -8.10424        -6.08931
   C      -12.26240        -7.01488        -5.27920
   S      -11.23176        -6.81347        -3.87183
   C      -13.30707        -6.05089        -5.49563
   C      -13.49063        -4.81297        -4.98213
   C      -14.86572        -4.21466        -5.01733
   O      -15.78222        -4.56034        -5.71898
   C      -14.85406        -3.18343        -3.96267
   C      -15.88790        -2.41365        -3.51046
   C      -15.64990        -1.48117        -2.47656
   C      -14.33972        -1.36610        -1.92503
   C      -14.10920        -0.43317        -0.89375
   C      -15.12998         0.35016        -0.43319
   C      -16.42529         0.23642        -0.98008
   C      -16.68089        -0.65949        -1.98037
   F      -17.40471         1.01529        -0.50822
   F      -14.91003         1.23473         0.54511
   C      -13.28749        -2.17125        -2.41550
   C      -13.53902        -3.06442        -3.42349
   C      -12.65352        -3.94728        -4.17183
   C      -11.29423        -3.82497        -4.28269
   C      -10.58456        -4.43666        -5.34192
   N      -10.04668        -4.88340        -6.25088
   C      -10.51897        -3.09596        -3.36335
   N       -9.86441        -2.60602        -2.55695
   H       -2.28104        -2.65421         9.20488
   H       -4.29879        -7.14192         9.81912
   H       -2.25195        -2.97257         6.78646
   H       -4.29244        -7.48928         7.34715
   H       -3.44992        -4.86795         1.73659
   H       -2.80451        -8.31929         2.61385
   H       -5.55572       -10.16252        -0.08480
   H       -9.45384        -9.87730        -4.97375
   H      -12.86461        -8.17248        -6.91732
   H      -14.12653        -6.40702        -6.11378
   H      -16.87302        -2.51172        -3.94036
   H      -13.12348        -0.33012        -0.46761
   H      -17.67668        -0.73328        -2.38848
   H      -12.30672        -2.06631        -1.97964
*
