# ORCA input file
# SCF done       -231.281044474737          0.000432636821
! CAM-B3LYP def2-SVP def2/J RIJCOSX Grid4 TightSCF
%maxcore 5000
%tddft
    Mode sTDDFT
    Ethresh 5.0
    maxcore 5000
end

%pal
  nprocs 6
  end
* xyz 0 1
   C       -3.72429        -5.17411        12.29811
   C       -3.67983        -6.01059        13.37817
   F       -3.49326        -5.51350        14.60674
   C       -3.82918        -7.40304        13.21468
   F       -3.78030        -8.19746        14.29098
   C       -4.02213        -7.93969        11.97247
   C       -4.07346        -7.10354        10.84019
   C       -3.92128        -5.69572        11.00367
   C       -3.96837        -4.83605         9.88215
   C       -4.16357        -5.36669         8.63391
   C       -4.31701        -6.77366         8.48283
   C       -4.27435        -7.63017         9.54546
   C       -4.52011        -7.08572         7.06064
   O       -4.68351        -8.19142         6.57751
   C       -4.48275        -5.80108         6.34695
   C       -4.25879        -4.74118         7.31608
   C       -4.15749        -3.39806         7.07158
   C       -4.24876        -2.77437         5.80784
   N       -4.31148        -2.18468         4.82503
   C       -3.94351        -2.42778         8.07511
   N       -3.77038        -1.59069         8.84075
   C       -4.63739        -5.65096         4.99610
   C       -4.88508        -6.62368         4.00942
   C       -5.03639        -6.26482         2.66287
   F       -4.93166        -5.00002         2.25539
   C       -5.30816        -7.33056         1.82084
   C       -5.36619        -8.54558         2.52953
   S       -5.07773        -8.35670         4.21986
   C       -5.65305        -9.61776         1.68117
   C       -5.81508        -9.20904         0.35198
   S       -5.60706        -7.49620         0.11218
   C       -6.12212       -10.26951        -0.50060
   F       -6.38042       -10.06712        -1.79076
   C       -6.19861       -11.49991         0.14782
   S       -5.92592       -11.31499         1.87226
   C       -6.47995       -12.79245        -0.38485
   C       -6.77486       -13.86148         0.49720
   C       -7.17317       -15.17133         0.04794
   N       -7.62122       -16.06421         0.94296
   C       -7.57359       -15.78554         2.21754
   C       -7.02293       -14.54079         2.67749
   N       -6.68252       -13.62321         1.80937
   C       -6.87400       -14.28635         4.06284
   N       -6.77421       -14.11982         5.19136
   C       -8.09214       -16.72105         3.14970
   N       -8.50638       -17.45212         3.92701
   C       -7.17406       -15.50522        -1.32096
   C       -6.84603       -14.46057        -2.20393
   C       -6.49045       -13.13113        -1.75562
   N       -6.16185       -12.35340        -2.78724
   S       -6.30769       -13.16763        -4.14969
   N       -6.78168       -14.56884        -3.53267
   C       -7.50462       -16.80618        -1.81836
   C       -7.34101       -18.04448        -1.22075
   F       -6.71002       -18.23948        -0.06285
   C       -7.81534       -19.10263        -2.00505
   C       -8.35035       -18.66159        -3.22286
   S       -8.21927       -16.95353        -3.40805
   C       -8.82806       -19.72393        -3.99310
   C       -8.65414       -20.95923        -3.35329
   S       -7.89047       -20.82670        -1.79630
   C       -9.15245       -22.01722        -4.11681
   F       -9.12392       -23.29076        -3.73265
   C       -9.67156       -21.62942        -5.34388
   S       -9.58693       -19.88533        -5.52861
   C      -10.30192       -22.49390        -6.27234
   C      -10.61140       -22.26714        -7.57504
   C      -11.68827       -23.06725        -8.22902
   O      -12.17063       -24.09800        -7.82744
   C      -12.07249       -22.28213        -9.42058
   C      -13.10072       -22.49665       -10.29284
   C      -13.30049       -21.58750       -11.35590
   C      -12.42963       -20.46704       -11.49309
   C      -12.64081       -19.56029       -12.55124
   C      -13.66598       -19.75744       -13.43313
   C      -14.52570       -20.86658       -13.29764
   C      -14.34755       -21.76333       -12.28168
   F      -15.52287       -21.03333       -14.17540
   F      -13.86483       -18.89505       -14.43742
   C      -11.36783       -20.27492       -10.58011
   C      -11.18955       -21.17293        -9.56233
   C      -10.17827       -21.25186        -8.51315
   C       -8.93174       -20.68816        -8.56664
   C       -7.88987       -21.03983        -7.68239
   N       -7.01106       -21.33819        -7.00758
   C       -8.52895       -19.77515        -9.56241
   N       -8.16572       -19.01530       -10.34170
   H       -3.60817        -4.11115        12.44149
   H       -4.13536        -9.00690        11.86333
   H       -3.84905        -3.77709        10.04282
   H       -4.39392        -8.69270         9.39822
   H       -4.57517        -4.64609         4.59308
   H      -10.65684       -23.43416        -5.85920
   H      -13.75361       -23.34777       -10.17350
   H      -11.98979       -18.70855       -12.67164
   H      -15.01412       -22.60670       -12.19190
   H      -10.72699       -19.41571       -10.69943
*
