# ORCA input file
# SCF done       -219.419827944096          0.000366385770
! CAM-B3LYP def2-SVP def2/J RIJCOSX Grid4 TightSCF
%maxcore 5000
%tddft
    Mode sTDDFT
    Ethresh 5.0
    maxcore 5000
end

%pal
  nprocs 6
  end
* xyz 0 1
   C       -2.82470         3.05297         3.05862
   C       -2.20796         3.96218         2.24599
   F       -1.96698         5.20405         2.68631
   C       -1.81820         3.60822         0.93835
   F       -1.21661         4.52124         0.16429
   C       -2.04946         2.34838         0.46180
   C       -2.68234         1.38870         1.27550
   C       -3.07896         1.74551         2.59705
   C       -3.71864         0.80073         3.43159
   C       -3.95396        -0.46482         2.96023
   C       -3.54974        -0.81057         1.64289
   C       -2.93234         0.07869         0.81149
   C       -3.90049        -2.21659         1.37035
   O       -3.69165        -2.80350         0.33005
   C       -4.54045        -2.72126         2.60825
   C       -4.58294        -1.63229         3.57313
   C       -5.11284        -1.65341         4.83797
   C       -5.74267        -2.74443         5.47384
   N       -6.27173        -3.56985         6.07316
   C       -5.10872        -0.54614         5.71410
   N       -5.14156         0.30711         6.48123
   C       -5.01408        -3.98073         2.86671
   C       -5.04241        -5.15456         2.09144
   C       -4.61973        -5.46011         0.80159
   C       -4.84329        -6.78937         0.47735
   C       -5.44883        -7.52422         1.52499
   S       -5.74090        -6.57194         2.89874
   C       -5.61551        -8.86174         1.09767
   C       -5.11933        -8.98103        -0.21294
   C       -4.62120        -7.68504        -0.64778
   C       -4.06018        -7.39098        -1.85454
   C       -3.89766        -8.36908        -2.86041
   N       -3.75982        -9.15552        -3.68314
   C       -3.59684        -6.10290        -2.20332
   N       -3.21065        -5.07275        -2.52383
   C       -5.22412       -10.27443        -0.71836
   C       -5.79255       -11.15090         0.18763
   S       -6.21112       -10.34291         1.69869
   C       -6.03673       -12.55757         0.04608
   C       -6.60593       -13.28427         1.08411
   C       -6.81450       -14.65043         1.00762
   C       -6.46787       -15.39546        -0.11225
   C       -5.90902       -14.68428        -1.22129
   N       -5.58716       -15.34400        -2.34811
   C       -5.07586       -14.68198        -3.35035
   C       -4.86261       -13.29537        -3.27214
   N       -5.17062       -12.62489        -2.19530
   C       -5.69567       -13.27709        -1.14299
   C       -6.65427       -16.81766        -0.13028
   C       -6.28801       -17.72710        -1.10476
   C       -6.60780       -19.03683        -0.75577
   C       -7.22985       -19.13658         0.50220
   S       -7.41594       -17.61527         1.24743
   C       -7.49452       -20.50229         0.77091
   C       -7.03533       -21.26533        -0.32338
   C       -6.46108       -20.37022        -1.31370
   C       -5.88051       -20.72275        -2.49625
   C       -5.78551       -22.07441        -2.89009
   N       -5.71982       -23.17824        -3.19366
   C       -5.34656       -19.77082        -3.39056
   N       -4.91804       -19.00159        -4.12460
   C       -7.20884       -22.62937        -0.14228
   C       -7.79585       -22.92764         1.08029
   S       -8.16504       -21.47091         1.99777
   C       -8.14383       -24.18917         1.60674
   C       -7.68327       -25.41824         1.23776
   C       -8.48635       -26.62147         1.59704
   O       -9.41181       -26.66417         2.37359
   C       -7.94550       -27.71238         0.76247
   C       -8.40255       -28.99047         0.61652
   C       -7.73592       -29.86006        -0.27575
   C       -6.61136       -29.38236        -1.00991
   C       -5.95735       -30.25197        -1.90557
   C       -6.39551       -31.53708        -2.06114
   C       -7.50612       -32.00939        -1.33285
   C       -8.16356       -31.18955        -0.45901
   F       -7.91410       -33.27352        -1.50595
   F       -5.77164       -32.36337        -2.91016
   C       -6.15712       -28.05532        -0.83364
   C       -6.80888       -27.23646         0.04875
   C       -6.54783       -25.85727         0.45495
   C       -5.33674       -25.22687         0.33187
   C       -5.02431       -23.99257         0.93333
   N       -4.71533       -23.00216         1.42539
   C       -4.22463       -25.78629        -0.33240
   N       -3.28913       -26.19562        -0.85539
   H       -3.11680         3.34088         4.05649
   H       -1.74513         2.09203        -0.54087
   H       -4.00425         1.10658         4.42454
   H       -2.63986        -0.21679        -0.18461
   H       -5.44159        -4.12714         3.85153
   H       -4.17139        -4.72523         0.15633
   H       -4.90818       -10.59696        -1.69273
   H       -6.88756       -12.77010         1.99181
   H       -7.25062       -15.15401         1.85834
   H       -4.83203       -15.25583        -4.23347
   H       -4.44333       -12.72704        -4.09052
   H       -5.80999       -17.41922        -2.01585
   H       -6.96447       -23.37981        -0.87183
   H       -8.92740       -24.20078         2.35828
   H       -9.26113       -29.33382         1.17320
   H       -5.10380       -29.90697        -2.46786
   H       -9.01216       -31.56638         0.09014
   H       -5.31174       -27.71496        -1.40994
*
