# ORCA input file
# SCF done       -241.345437732789          0.000835234138
! CAM-B3LYP def2-SVP def2/J RIJCOSX Grid4 TightSCF
%maxcore 5000
%tddft
    Mode sTDDFT
    Ethresh 5.0
    maxcore 5000
end

%pal
  nprocs 6
  end
* xyz 0 1
   C       -0.42068        -0.09823        -1.21461
   O       -0.68578        -1.03169        -1.93826
   C       -0.11808         1.27695        -1.66208
   C        0.12847         2.09921        -0.55029
   C        0.42561         3.43877        -0.74496
   C        0.47313         3.92857        -2.04510
   C        0.22954         3.10021        -3.14386
   C       -0.07108         1.75797        -2.95409
  Br        0.30413         3.79495        -4.89852
  Br        0.87480         5.75636        -2.30922
   C        0.01347         1.29543         0.66424
   C        0.27919         1.74784         1.92909
   C        0.65436         3.07668         2.22874
   N        0.95763         4.13844         2.53967
   C        0.25077         0.98031         3.11430
   N        0.26804         0.43170         4.12277
   C       -0.36684        -0.05312         0.26652
   C       -0.69938        -1.04100         1.15322
   C       -1.02637        -2.39845         0.96172
   C       -0.99337        -3.23369        -0.15013
   C       -1.37131        -4.53150         0.16254
   C       -1.70605        -4.70150         1.52698
   S       -1.53767        -3.26795         2.41792
   C       -2.08462        -6.04832         1.74438
   C       -1.98322        -6.73258         0.51269
   C       -1.53729        -5.80551        -0.51805
   C       -1.32745        -6.08504        -1.83500
   C       -1.56473        -7.37438        -2.36026
   N       -1.77189        -8.41984        -2.78147
   C       -0.86151        -5.12904        -2.76465
   N       -0.47064        -4.37875        -3.53729
   C       -2.31846        -8.06896         0.63121
   C       -2.68808        -8.41314         1.93415
   S       -2.61677        -7.03637         3.02801
   C       -3.05770        -9.72818         2.30210
   C       -3.53022       -10.27831         3.49477
   C       -3.71696        -9.52110         4.71020
   O       -3.46767        -8.32813         4.82230
   C       -4.22693       -10.30614         5.84640
   C       -4.51517       -11.69192         5.74835
   C       -4.96811       -12.20638         6.94151
   S       -5.04906       -11.02776         8.18683
   C       -4.47315        -9.82088         7.11029
   C       -4.29291        -8.41764         7.60449
   F       -3.02542        -8.00389         7.52876
   F       -5.04958        -7.53779         6.94312
   F       -4.64611        -8.32502         8.89805
   C       -5.36646       -13.62056         7.23685
   F       -6.41736       -14.02152         6.51623
   F       -4.37348       -14.48865         7.02735
   F       -5.71994       -13.75072         8.52698
   C       -4.34297       -12.44936         4.49828
   O       -4.65086       -13.63176         4.42331
   C       -3.80857       -11.67925         3.40027
   C       -3.51787       -12.21647         2.14515
   S       -2.93097       -10.96636         1.07761
   C       -3.59040       -13.53090         1.62778
   C       -3.11882       -13.87124         0.35697
   C       -3.29064       -15.21347         0.07242
   C       -3.91574       -15.90592         1.13312
   S       -4.26458       -14.91765         2.47674
   C       -4.04873       -17.26155         0.74661
   C       -3.51810       -17.42778        -0.54976
   C       -3.01571       -16.14482        -1.01250
   C       -2.40770       -15.87103        -2.20103
   C       -2.20375       -16.86118        -3.18629
   N       -2.04572       -17.66221        -3.99059
   C       -1.94296       -14.57564        -2.51633
   N       -1.56417       -13.52215        -2.76144
   C       -3.62971       -18.73346        -1.01306
   C       -4.20550       -19.57705        -0.07273
   S       -4.66089       -18.70951         1.39239
   C       -4.51111       -20.94211        -0.27852
   C       -4.83687       -21.90893         0.62146
   C       -5.58313       -23.11245         0.15641
   O       -5.74301       -23.47331        -0.98351
   C       -6.13102       -23.71706         1.39105
   C       -5.63782       -23.02632         2.51409
   C       -4.70106       -22.00054         2.06076
   C       -3.69191       -21.46533         2.81497
   C       -2.63539       -20.71139         2.26165
   N       -1.74518       -20.12912         1.83115
   C       -3.54394       -21.69494         4.19910
   N       -3.39596       -21.84937         5.32591
   C       -6.04337       -23.39361         3.78524
   C       -6.93341       -24.45379         3.91710
   C       -7.40610       -25.14607         2.79887
   C       -7.00517       -24.77637         1.52102
  Br       -8.60660       -26.58944         3.00830
  Br       -7.50344       -24.94928         5.64867
   H        0.61689         4.11167         0.07475
   H       -0.26209         1.10438        -3.79114
   H       -0.72937        -0.74891         2.19642
   H       -0.71118        -2.88594        -1.12770
   H       -2.30768        -8.78081        -0.17546
   H       -2.66721       -13.15380        -0.30563
   H       -3.29227       -19.08277        -1.97227
   H       -4.57990       -21.24557        -1.31956
   H       -5.69964       -22.87714         4.66727
   H       -7.36769       -25.30272         0.65168
*
