# ORCA input file
# SCF done       -216.603517568221          0.000911547863
! CAM-B3LYP def2-SVP def2/J RIJCOSX Grid4 TightSCF
%maxcore 5000
%tddft
    Mode sTDDFT
    Ethresh 5.0
    maxcore 5000
end

%pal
  nprocs 6
  end
* xyz 0 1
   C        2.61739         0.96337         3.75101
   S        1.78666         2.41896         3.44566
   C        2.99499         2.90040         2.27031
   C        3.97364         1.92484         2.14787
   C        3.74922         0.82154         2.99553
   C        4.65257        -0.37166         3.04390
   C        6.02708        -0.05348         2.44739
   C        6.87417         0.72328         3.44903
   F        6.27602         1.79825         3.97882
   F        7.21953        -0.05539         4.49060
   F        8.02416         1.15907         2.90882
   C        5.87956         0.68383         1.11274
   C        5.17443         2.03210         1.26469
   C        2.91934         4.14843         1.61249
   C        1.87399         5.00212         1.77631
   C        1.77104         6.26155         1.14692
   N        2.65573         6.69821         0.25264
   C        2.16416         7.85338        -0.22164
   C        0.86278         8.17340         0.39140
   C        0.32161         9.42804        -0.15534
   O       -0.72908         9.97287         0.10760
   C        1.37268         9.83845        -1.10381
   C        2.47033         8.85249        -1.11823
   N        3.44355         9.23168        -1.98015
   C        3.02949        10.37283        -2.48234
   C        1.75033        10.81165        -1.97599
   C        0.61695         7.18752         1.30462
   C       -0.51549         7.01375         2.16184
   C       -0.46436         6.40906         3.36594
   C       -1.57147         6.05007         4.21388
   C       -1.30304         5.30448         5.34324
   C       -2.35006         4.85205         6.16423
   C       -2.33378         4.08178         7.32287
   C       -1.11875         3.48869         7.95484
   C       -1.01042         3.82298         9.45080
   N       -1.34566         5.21972         9.66723
   C       -1.07368         1.96682         7.71537
   N       -0.74172         1.71069         6.32495
   C       -3.70714         3.88591         7.71111
   C       -4.27371         3.21673         8.73464
   C       -5.74458         3.01304         8.80465
   C       -6.54540         3.84581         7.85468
   C       -5.96588         4.55627         6.86395
   C       -4.56111         4.58282         6.73033
   C       -3.72093         5.17566         5.80427
   C       -3.96916         5.95841         4.65388
   C       -2.92773         6.37948         3.89016
   C       -6.02321         1.59261         8.35508
   C       -5.39959         1.04243         7.30097
   C       -5.57192        -0.30878         6.89048
   N       -6.38036        -1.16091         7.50799
   C       -6.19329        -2.34809         6.90150
   C       -5.18176        -2.25637         5.83867
   C       -4.98510        -3.56208         5.19892
   O       -4.20912        -3.85957         4.30926
   C       -5.94657        -4.41963         5.91050
   C       -6.65839        -3.64453         6.94353
   N       -7.54942        -4.42451         7.59889
   C       -7.43930        -5.61059         7.04394
   C       -6.46180        -5.67686         5.98295
   C       -4.79142        -0.93900         5.80220
   C       -3.88140        -0.26422         4.94629
   C       -3.09727        -0.90258         4.04562
   C       -2.22663        -0.24431         3.14194
   S       -2.19110         1.49363         2.99300
   C       -1.03117         1.40935         1.70645
   C       -0.67327         0.10140         1.44113
   C       -1.35428        -0.83264         2.24114
   C       -1.20397        -2.31655         2.09357
   C        0.01937        -2.68947         1.24908
   C        1.26959        -2.65906         2.11776
   F        1.35133        -1.59807         2.93422
   F        1.34118        -3.73753         2.91431
   F        2.41008        -2.65343         1.39944
   C        0.14605        -1.77744         0.02604
   C        0.33884        -0.31381         0.41847
   C       -0.61234         2.59345         1.01237
   C       -1.16694         3.79403         1.16907
   H        2.22603         0.27768         4.47504
   H        4.20845        -1.18313         2.46247
   H        4.75325        -0.72459         4.07249
   H        6.57607        -0.98735         2.28216
   H        5.29786         0.03991         0.44963
   H        6.86154         0.83482         0.66113
   H        4.88819         2.40332         0.27874
   H        5.86077         2.76731         1.69621
   H        3.73471         4.44039         0.96625
   H        1.05046         4.68955         2.40114
   H        3.62902        10.89425        -3.20852
   H        1.24297        11.71363        -2.25637
   H       -1.44072         7.42536         1.78156
   H        0.50422         6.13005         3.76068
   H       -0.28192         5.04554         5.58381
   H       -0.24135         3.90701         7.45237
   H        0.00541         3.55438         9.79002
   H       -1.71557         3.22237        10.03019
   H       -0.72733         5.81712         9.12844
   H       -1.23890         5.46360        10.64543
   H       -2.03161         1.51978         8.03104
   H       -0.27913         1.53019         8.32819
   H       -0.73349         0.71453         6.13634
   H       -1.42921         2.13773         5.71197
   H       -3.69103         2.70749         9.48686
   H       -6.10143         3.13659         9.83159
   H       -7.61741         3.79726         7.96182
   H       -6.56955         5.12337         6.17016
   H       -4.98552         6.21291         4.39168
   H       -3.11630         6.98074         3.01482
   H       -6.76392         1.02032         8.89256
   H       -4.68137         1.62778         6.74357
   H       -8.04666        -6.42896         7.38982
   H       -6.22471        -6.54843         5.40507
   H       -3.83277         0.81588         5.00969
   H       -3.13910        -1.98159         3.98305
   H       -2.09999        -2.71466         1.60902
   H       -1.13718        -2.79270         3.07461
   H       -0.07200        -3.72907         0.91638
   H       -0.77251        -1.87804        -0.55457
   H        0.97907        -2.10458        -0.59848
   H        0.25551         0.30907        -0.47365
   H        1.34282        -0.16093         0.82879
   H        0.18920         2.45906         0.29852
   H       -1.96693         3.95883         1.87219
   H       -0.84190         4.64274         0.59522
*
