# ORCA input file
# SCF done       -180.775253673237          0.000786136099
! CAM-B3LYP def2-SVP def2/J RIJCOSX Grid4 TightSCF
%maxcore 5000
%tddft
    Mode sTDDFT
    Ethresh 5.0
    maxcore 5000
end

%pal
  nprocs 6
  end
* xyz 0 1
   C        6.55050        -1.74814         0.28535
   S        7.24578        -3.10850        -0.46730
   C        7.40734        -2.25879        -1.97198
   C        7.97651        -2.84500        -3.20026
   O        8.09684        -2.20150        -4.20680
   O        8.35339        -4.12838        -3.13831
   C        6.93713        -0.97838        -1.86791
   C        6.43572        -0.69503        -0.57899
   O        5.97166         0.52359        -0.16158
   C        5.28854         1.33360        -0.97538
   C        5.44623         2.71370        -0.79001
   C        6.31194         3.42868         0.18040
   O        7.06418         2.97118         0.99931
   N        6.08144         4.78897        -0.05483
   C        5.16334         5.00523        -1.08911
   O        4.79726         6.08354        -1.47209
   C        4.77360         3.65541        -1.56606
   C        3.92613         3.28844        -2.59467
   C        3.74373         1.92350        -2.77314
   C        4.36948         0.95546        -1.97948
   C        3.89540        -0.41464        -2.24567
   O        4.12119        -1.41213        -1.62234
   S        2.79681        -0.40179        -3.66353
   C        2.84137         1.38373        -3.81186
   O        2.22372         1.99936        -4.62557
   C        6.63730         5.86675         0.62907
   C        7.61912         5.78428         1.53831
   C        8.15756         6.90624         2.23882
   N        9.24065         6.74111         3.07307
   C        9.55327         7.94561         3.62093
   C       10.42496         8.59969         4.47976
   C       10.01569         9.94293         4.50014
   N        8.92014        10.09912         3.67488
   C        8.62324         8.89755         3.12279
   C        7.75353         8.24342         2.25259
   C       10.61190        10.98859         5.24094
   C       10.13265        12.25551         5.32186
   C       10.67271        13.31558         6.11268
   C        9.79628        14.28324         6.64730
   C        8.33716        14.42290         6.46314
   O        7.57848        13.77664         5.78346
   N        7.94532        15.51000         7.25971
   C        9.02673        16.08713         7.92677
   O        8.98901        17.02893         8.67225
   C       10.21020        15.28439         7.52090
   C       11.52875        15.41964         7.91302
   C       12.42435        14.52753         7.33494
   C       12.03864        13.51984         6.44941
   C       13.17986        12.82930         5.82775
   O       13.19720        12.04439         4.92687
   S       14.71741        13.41293         6.58406
   C       13.87541        14.61115         7.60614
   O       14.42768        15.34587         8.36762
   C        6.60804        15.88896         7.32743
   C        6.13164        16.89569         8.07237
   C        4.74770        17.25270         8.14181
   S        4.26106        18.56815         9.15791
   C        2.60441        18.35748         8.72962
   C        1.62988        19.26590         9.34120
   O        1.94433        20.12898        10.11520
   O        0.33997        19.08467         8.98946
   C        2.44015        17.31718         7.83998
   C        3.64848        16.68887         7.50430
   O        3.75697        15.63944         6.65093
   H        6.25085        -1.78500         1.31272
   H        8.18917        -4.53703        -2.27764
   H        6.95926        -0.28427        -2.68887
   H        3.42200         4.00832        -3.21860
   H        6.19344         6.80647         0.33343
   H        8.04666         4.82191         1.77777
   H        9.71795         5.86814         3.21958
   H       11.25359         8.19781         5.02694
   H        8.43744        10.96714         3.52057
   H        6.93267         8.65822         1.70494
   H       11.48936        10.70180         5.79959
   H        9.18731        12.49281         4.85535
   H       11.85639        16.18042         8.60233
   H        5.97255        15.26984         6.71099
   H        6.79691        17.49454         8.67528
   H        0.22102        18.36158         8.36230
   H        1.49350        16.99830         7.43105
   H        2.88478        15.39888         6.31629
*
