# ORCA input file
# SCF done       -215.323709778696          0.000773931009
! CAM-B3LYP def2-SVP def2/J RIJCOSX Grid4 TightSCF
%maxcore 5000
%tddft
    Mode sTDDFT
    Ethresh 5.0
    maxcore 5000
end

%pal
  nprocs 6
  end
* xyz 0 1
   C       -2.09929        -1.01631        -0.09172
   C       -2.78654        -0.25760         0.82986
   C       -2.61003         1.14516         0.93994
   N       -3.36844         1.72390         1.91539
   C       -4.08658         0.87236         2.53139
   S       -3.95042        -0.79167         2.00935
   C       -1.72651         1.85392         0.10201
   C       -1.03578         1.06962        -0.82500
   C       -1.21269        -0.33825        -0.91970
   N       -0.44359        -0.94832        -1.86878
   C        0.29550        -0.11731        -2.48494
   S        0.15494         1.55464        -2.00089
   C       -1.62146         3.27857         0.29461
   C       -0.95317         4.14985        -0.47899
   C       -0.85601         5.57715        -0.26792
   C       -0.31803         6.36549        -1.29748
   C       -0.20988         7.72398        -1.13332
   C       -0.61879         8.33255         0.06511
   C       -1.14393         7.56430         1.09368
   C       -1.26097         6.19978         0.91932
   C       -0.37868         9.75794        -0.03604
   C        0.16838        10.02853        -1.30052
   C        0.32326         8.75582        -2.09978
   C       -0.51308         8.80019        -3.39197
   C       -1.98771         9.08193        -3.13031
   C        1.79881         8.48970        -2.45037
   C        2.69381         8.41286        -1.21949
   C        0.48530        11.31535        -1.66588
   C        0.27408        12.35877        -0.75955
   C       -0.26078        12.07724         0.49878
   C       -0.59460        10.78720         0.86700
   C        0.62267        13.73612        -1.12769
   C        1.26605        14.55389        -0.24155
   C        1.62002        15.87110        -0.61819
   C        2.28426        16.86941         0.07057
   C        2.81126        16.77147         1.46635
   C        4.32741        17.00934         1.52658
   N        4.98985        16.22923         0.49544
   C        2.05688        17.71668         2.41492
   N        0.69355        17.23810         2.57217
   C        2.36169        18.00816        -0.81509
   C        2.90345        19.23158        -0.67327
   C        2.86891        20.24623        -1.76476
   C        2.16003        19.80483        -3.00561
   C        1.61928        18.57952        -3.13594
   C        1.70207        17.64177        -2.08063
   C        1.26081        16.34153        -1.94945
   C        0.58155        15.47343        -2.83582
   C        0.28582        14.21103        -2.43624
   C        2.23911        21.51458        -1.24231
   C        2.88306        22.67651        -1.15519
   C        2.34877        23.94489        -0.68628
   C        1.05874        24.07740        -0.15681
   C        0.61964        25.31151         0.25807
   C        1.44861        26.44096         0.15635
   C        2.72915        26.32258        -0.35904
   C        3.16460        25.07822        -0.77159
   C        0.72172        27.59321         0.65176
   C       -0.55319        27.17238         1.06235
   C       -0.71692        25.68501         0.85691
   C       -0.95280        24.95831         2.19427
   C        0.16052        25.20380         3.20557
   C       -1.87746        25.37885        -0.10725
   C       -1.73559        26.09141        -1.44651
   C       -1.46352        28.07376         1.55925
   C       -1.10448        29.42121         1.65468
   C        0.16639        29.83115         1.25001
   C        1.08341        28.92716         0.74711
   C       -2.07007        30.39940         2.15867
   C       -1.74128        31.41608         3.04565
   C       -2.68829        32.35454         3.52512
   N       -2.17902        33.25525         4.41542
   C       -0.94267        33.05528         4.64260
   S       -0.19554        31.72889         3.78830
   C       -4.03363        32.33635         3.11611
   C       -4.36130        31.31912         2.22183
   C       -3.41325        30.36638         1.75871
   N       -3.91639        29.45173         0.87881
   C       -5.15358        29.63637         0.65189
   S       -5.90298        30.97299         1.48818
   C       -4.91785        33.35084         3.65805
   C       -6.21054        33.52043         3.40241
   H       -2.22250        -2.08184        -0.18068
   H       -4.75054         1.12571         3.33473
   H        0.97781        -0.39017        -3.26631
   H       -2.17993         3.62652         1.15131
   H       -0.44537         3.79545        -1.36644
   H       -0.00010         5.89153        -2.21581
   H       -1.45516         8.02453         2.01986
   H       -1.65956         5.59984         1.72264
   H       -0.41273         7.84251        -3.90757
   H       -0.10621         9.57527        -4.04533
   H       -2.41567         8.31653        -2.48676
   H       -2.53969         9.09256        -4.06755
   H       -2.11370        10.04693        -2.64446
   H        2.15237         9.28983        -3.10432
   H        1.86383         7.55115        -3.00525
   H        2.65216         9.34300        -0.65708
   H        3.72508         8.23520        -1.51654
   H        2.37856         7.60245        -0.56602
   H        0.91899        11.52613        -2.63296
   H       -0.43541        12.89224         1.18623
   H       -1.01752        10.58813         1.84068
   H        1.52775        14.18826         0.74078
   H        2.61868        15.75449         1.82326
   H        4.67517        16.77219         2.54843
   H        4.55736        18.06083         1.33685
   H        4.73939        15.24976         0.58230
   H        5.99726        16.30430         0.58443
   H        2.11555        18.74787         2.02943
   H        2.52971        17.69819         3.40240
   H        0.24885        17.17350         1.66135
   H        0.15296        17.87995         3.14157
   H        3.38959        19.54973         0.23830
   H        3.91306        20.47862        -2.02568
   H        2.10163        20.53561        -3.79839
   H        1.11766        18.29437        -4.05014
   H        0.30812        15.82355        -3.82103
   H       -0.24279        13.53986        -3.09793
   H        1.20351        21.41084        -0.95372
   H        3.91917        22.71728        -1.47296
   H        0.41613        23.21435        -0.07356
   H        3.37583        27.18378        -0.43822
   H        4.16147        24.97336        -1.17676
   H       -1.03655        23.88661         2.00035
   H       -1.90304        25.29771         2.61196
   H        1.11449        24.85058         2.82008
   H       -0.05267        24.67727         4.13325
   H        0.25181        26.26527         3.42492
   H       -2.81327        25.68467         0.36489
   H       -1.92045        24.29970        -0.27129
   H       -1.74704        27.16989        -1.30743
   H       -2.55930        25.82041        -2.10311
   H       -0.80212        25.81479        -1.93220
   H       -2.44507        27.75998         1.87733
   H        0.42723        30.87803         1.29987
   H        2.05877        29.26171         0.42698
   H       -0.35732        33.65691         5.31030
   H       -5.73565        29.02394        -0.00876
   H       -4.41302        34.02098         4.34057
   H       -6.77000        32.89146         2.73187
   H       -6.76133        34.31973         3.86760
*
