# ORCA input file
# SCF done       -170.775703810717          0.000320942234
! CAM-B3LYP def2-SVP def2/J RIJCOSX Grid4 TightSCF
%maxcore 5000
%tddft
    Mode sTDDFT
    Ethresh 5.0
    maxcore 5000
end

%pal
  nprocs 6
  end
* xyz 0 1
   C       -2.52012        -2.86777        -4.79878
   C       -2.63865        -2.45446        -3.46836
   C       -2.64723        -3.42015        -2.42588
   C       -2.54248        -4.77404        -2.71006
   C       -2.42717        -5.15705        -4.03000
   C       -2.41555        -4.21291        -5.06143
   S       -2.79309        -2.63216        -0.89066
   C       -2.82507        -1.08700        -1.75760
   N       -2.74197        -1.17775        -3.04411
   C       -2.88888         0.11933        -1.00595
   N       -2.97018         0.09016         0.31085
   C       -2.95110         1.38450         0.70675
   C       -2.85371         2.28950        -0.44371
   C       -2.79747         3.68720         0.00312
   O       -2.70425         4.69380        -0.66693
   C       -2.86910         3.55869         1.47355
   C       -2.96131         2.13466         1.85745
   N       -3.01592         2.00532         3.20676
   C       -2.96628         3.22959         3.67002
   C       -2.87099         4.24888         2.64191
   C       -2.81340         1.49072        -1.55960
   C       -2.68132         1.77383        -2.94184
   C       -2.53027         3.01264        -3.46155
   C       -2.34993         3.25688        -4.86871
   C       -1.97755         2.24834        -5.73548
   C       -1.81638         2.52385        -7.10095
   C       -1.40594         1.69650        -8.14496
   C       -1.04343         0.25860        -8.02724
   C       -1.74553        -0.61414        -9.08377
   N       -1.98087        -1.93167        -8.52069
   C        0.49063         0.06849        -8.04752
   N        1.01274         0.26122        -6.71095
   C       -1.30280         2.52953        -9.31808
   C       -0.75789         2.31090       -10.53487
   C       -0.50039         3.45579       -11.43345
   C       -1.33076         4.67401       -11.16345
   C       -1.89377         4.87412        -9.94222
   C       -1.78668         3.87804        -8.95946
   C       -2.06355         3.86423        -7.59811
   C       -2.42916         4.88164        -6.69247
   C       -2.54772         4.58280        -5.37018
   C        0.74555         4.22405       -11.02731
   C        1.24142         4.22074        -9.76995
   C        2.18136         5.14263        -9.25844
   N        2.85429         6.02651        -9.98900
   C        3.50640         6.80268        -9.10939
   C        3.21108         6.41229        -7.71903
   C        3.91735         7.29364        -6.77232
   O        3.87017         7.28524        -5.56017
   C        4.66942         8.18611        -7.66717
   C        4.38442         7.86500        -9.07834
   N        5.07751         8.68038        -9.90489
   C        5.76951         9.46656        -9.10886
   C        5.56642         9.20961        -7.70436
   C        2.39291         5.31701        -7.79992
   C        1.82269         4.49043        -6.78732
   C        1.74991         4.81484        -5.47941
   C        1.25745         3.89852        -4.50193
   N        0.99298         2.64973        -4.71050
   C        0.68027         1.98815        -3.56808
   C        0.44460         0.61689        -3.45512
   C        0.22792         0.08549        -2.20415
   C        0.20867         0.89189        -1.06490
   C        0.41864         2.25314        -1.15446
   C        0.66748         2.79609        -2.40409
   S        1.07094         4.42800        -2.82099
   H       -2.51459        -2.13769        -5.59232
   H       -2.55118        -5.50166        -1.91413
   H       -2.34423        -6.20594        -4.27151
   H       -2.32483        -4.54837        -6.08315
   H       -2.99630         3.41104         4.73039
   H       -2.81632         5.30550         2.81532
   H       -2.70281         0.90471        -3.58125
   H       -2.56286         3.87560        -2.80831
   H       -1.77172         1.25641        -5.36836
   H       -1.38473        -0.10394        -7.05361
   H       -1.15160        -0.63431       -10.01278
   H       -2.72195        -0.18078        -9.31927
   H       -1.10041        -2.38122        -8.29172
   H       -2.47390        -2.52261        -9.18027
   H        0.93316         0.73872        -8.80617
   H        0.72364        -0.96083        -8.34030
   H        0.84747         1.20565        -6.36982
   H        2.01294         0.09869        -6.68521
   H       -0.37471         1.34679       -10.83351
   H       -0.46708         3.16934       -12.48449
   H       -1.38017         5.42092       -11.93842
   H       -2.41457         5.79284        -9.71807
   H       -2.58955         5.88693        -7.05247
   H       -2.80930         5.35294        -4.65941
   H        1.16911         4.88505       -11.76743
   H        0.82009         3.54878        -9.03797
   H        6.41425        10.22272        -9.52268
   H        6.03723         9.73551        -6.89736
   H        1.42668         3.52982        -7.08803
   H        2.10422         5.77144        -5.12302
   H        0.46908         0.00376        -4.34232
   H        0.08059        -0.97887        -2.09693
   H        0.03706         0.44382        -0.09718
   H        0.40905         2.88039        -0.27648
*
