# ORCA input file
# SCF done       -234.153957241707          0.000999643765
! CAM-B3LYP def2-SVP def2/J RIJCOSX Grid4 TightSCF
%maxcore 5000
%tddft
    Mode sTDDFT
    Ethresh 5.0
    maxcore 5000
end

%pal
  nprocs 6
  end
* xyz 0 1
   C       -6.14395        -4.87192         6.84398
   C       -5.64449        -5.78411         7.76090
   C       -4.38700        -6.34563         7.59613
   C       -3.58990        -6.00674         6.51272
   C       -4.07809        -5.09810         5.58844
   C       -5.36132        -4.52953         5.75387
   C       -5.62218        -3.63093         4.64070
   C       -6.71154        -2.80693         4.52089
   C       -7.72084        -2.66611         5.49321
   N       -8.57701        -2.44901         6.22919
   C       -6.97730        -1.90200         3.47035
   N       -7.30272        -1.12375         2.68986
   C       -4.49573        -3.74858         3.72360
   C       -3.46985        -4.52277         4.39870
   C       -2.13534        -4.56503         4.08456
   C       -1.50903        -3.71889         3.15005
   N       -0.91651        -2.99908         2.47817
   C       -1.20291        -5.40957         4.71696
   N       -0.40717        -6.10955         5.16008
   C       -4.50122        -3.25257         2.45106
   C       -3.62985        -3.52269         1.33414
   C       -3.16094        -4.81817         1.02586
   O       -3.42537        -5.79430         1.93235
   C       -3.05065        -7.13064         1.65309
   C       -3.44189        -7.97601         2.85533
   C       -2.51800        -5.02699        -0.18352
   C       -2.27182        -3.98783        -1.07127
   C       -1.58937        -4.25239        -2.37984
   C       -2.62267        -4.37345        -3.50183
   C       -2.69534        -2.69447        -0.75660
   O       -2.43967        -1.68272        -1.65159
   C       -1.56655        -0.65571        -1.19702
   C       -1.69417         0.52662        -2.14216
   C       -3.38302        -2.46578         0.43426
   C       -3.87611        -1.15029         0.85511
   C       -3.65829        -0.75452         2.15639
   C       -4.35185         0.35480         2.67521
   C       -4.44328         0.83751         3.97461
   C       -3.69820         0.31714         5.15587
   C       -2.90395         1.41325         5.88492
   N       -2.02226         0.80541         6.87230
   C       -4.64606        -0.41907         6.13584
   N       -3.99765        -1.38961         6.99086
   C       -5.50089         1.81106         3.97203
   C       -6.14731         2.43101         4.98233
   C       -7.39211         3.18915         4.72306
   C       -7.61676         3.55910         3.30118
   C       -6.96311         2.93801         2.29662
   C       -5.96280         1.98545         2.58857
   C       -5.26281         1.07996         1.80679
   C       -5.35843         0.72538         0.44570
   C       -4.68680        -0.36729        -0.01438
   C       -7.67482         4.26994         5.72273
   C       -7.77823         4.12271         7.04308
   C       -7.62507         2.89351         7.82906
   C       -8.22082         1.67377         7.45709
   O       -9.12310         1.72555         6.43222
   C      -10.08391         0.68519         6.29151
   C      -11.08357         0.67061         7.44069
   C       -7.90366         0.50237         8.13228
   C       -7.00735         0.48442         9.18844
   C       -6.67410        -0.77899         9.93001
   C       -6.53591        -2.02075         9.05590
   C       -6.45689         1.69586         9.60957
   O       -5.56824         1.72770        10.65907
   C       -6.13806         1.97305        11.93695
   C       -5.02403         1.90810        12.96570
   C       -6.81455         2.89935         8.98020
   C       -6.29473         4.10878         9.60059
   C       -7.00296         5.18703        10.00313
   C       -6.40966         6.44798        10.45457
   C       -5.18271         6.61045        11.03471
   C       -4.30169         5.55717        11.36045
   N       -3.54537         4.75417        11.67924
   C       -4.66586         7.85616        11.44987
   N       -4.19282         8.83944        11.80580
   C       -7.39921         7.48210        10.20725
   C       -8.61389         6.87179         9.81166
   C       -9.72079         7.64626         9.49830
   C       -9.61097         9.02458         9.58519
   C       -8.42300         9.62417         9.98441
   C       -7.30872         8.86335        10.29913
   C       -8.44234         5.42978         9.84609
   C       -9.44391         4.50078         9.90288
   C       -9.28057         3.14606        10.25908
   N       -9.26450         2.06375        10.64225
   C      -10.80794         4.80677         9.70955
   N      -11.92759         4.98917         9.53516
   H       -7.12376        -4.44700         6.98390
   H       -6.24574        -6.06117         8.61326
   H       -4.01948        -7.05693         8.32012
   H       -2.61489        -6.45247         6.39961
   H       -5.34751        -2.62792         2.19472
   H       -1.96696        -7.19154         1.48639
   H       -3.56967        -7.48358         0.75179
   H       -3.23070        -9.02168         2.65258
   H       -4.50252        -7.85913         3.06288
   H       -2.87916        -7.66700         3.73230
   H       -2.17893        -6.01491        -0.45294
   H       -1.00402        -5.17115        -2.31531
   H       -0.91810        -3.42437        -2.61134
   H       -3.31536        -5.18688        -3.29621
   H       -2.12855        -4.56760        -4.45070
   H       -3.18671        -3.44821        -3.58271
   H       -0.53478        -1.03719        -1.19319
   H       -1.82241        -0.35683        -0.17429
   H       -1.48712         0.21093        -3.16120
   H       -0.98961         1.30296        -1.85803
   H       -2.70303         0.92847        -2.09992
   H       -2.95454        -1.29625         2.77054
   H       -2.97141        -0.42093         4.79071
   H       -3.59099         2.07553         6.41639
   H       -2.36524         2.01770         5.13582
   H       -1.61226         1.51529         7.46876
   H       -1.26214         0.31705         6.40816
   H       -5.41816        -0.93103         5.55472
   H       -5.14528         0.30237         6.78572
   H       -3.50003        -2.07617         6.43064
   H       -3.30546        -0.90342         7.55630
   H       -5.84905         2.31946         6.01349
   H       -8.16856         2.41733         4.93132
   H       -8.39209         4.28336         3.10325
   H       -7.19341         3.16122         1.26519
   H       -6.00502         1.29015        -0.20943
   H       -4.79051        -0.69178        -1.03846
   H       -7.78835         5.26184         5.30719
   H       -7.91824         5.03104         7.61267
   H       -9.59590        -0.28877         6.17839
   H      -10.59024         0.92513         5.35241
   H      -10.58128         0.49376         8.38886
   H      -11.81278        -0.11671         7.27511
   H      -11.60012         1.62622         7.49969
   H       -8.35601        -0.42607         7.82848
   H       -7.46542        -0.94533        10.66892
   H       -5.74114        -0.61636        10.47218
   H       -5.76185        -1.87638         8.30510
   H       -7.47144        -2.26440         8.56021
   H       -6.25477        -2.86793         9.67785
   H       -6.91908         1.23075        12.14722
   H       -6.60910         2.96842        11.94581
   H       -4.56244         0.92485        12.95091
   H       -5.42566         2.10104        13.95635
   H       -4.26676         2.65234        12.73238
   H       -5.22990         4.09141         9.79994
   H      -10.64581         7.19286         9.18128
   H      -10.46221         9.63987         9.33737
   H       -8.36352        10.69994        10.04728
   H       -6.39193         9.34311        10.60065
*
