# ORCA input file
# SCF done       -194.504712576451          0.000501416900
! CAM-B3LYP def2-SVP def2/J RIJCOSX Grid4 TightSCF
%maxcore 5000
%tddft
    Mode sTDDFT
    Ethresh 5.0
    maxcore 5000
end

%pal
  nprocs 6
  end
* xyz 0 1
   C       -3.01212        -3.15690        -5.91323
   C       -1.67886        -2.89954        -5.63524
   C       -1.21452        -2.85252        -4.32808
   C       -2.06660        -3.08901        -3.26151
   C       -3.40401        -3.33385        -3.52541
   C       -3.88702        -3.34741        -4.85364
   C       -5.32149        -3.58762        -4.83442
   C       -6.13248        -3.77220        -5.91966
   C       -5.69994        -3.66727        -7.25939
   N       -5.41756        -3.55905        -8.36625
   C       -7.50205        -4.10334        -5.84214
   N       -8.61253        -4.39462        -5.83001
   C       -5.73029        -3.56415        -3.42832
   C       -4.50621        -3.63656        -2.63060
   C       -4.40221        -4.11275        -1.35510
   C       -5.48902        -4.66011        -0.64263
   N       -6.33074        -5.17487        -0.05683
   C       -3.18711        -4.18942        -0.64232
   N       -2.22929        -4.26339        -0.01515
   C       -6.98893        -3.30486        -2.99534
   C       -7.38197        -2.87329        -1.67817
   C       -8.54259        -3.27279        -1.03356
   C       -9.56757        -4.27252        -1.36046
   O      -10.61473        -4.26840        -0.75171
   C       -9.24688        -5.28291        -2.42694
   S       -8.73496        -2.49546         0.49544
   C       -7.28330        -1.62274         0.26996
   C       -6.66063        -1.89952        -0.91274
   C       -5.43699        -1.23246        -1.37014
   C       -5.37617        -0.67226        -2.61449
   C       -4.15850        -0.13112        -3.09583
   C       -3.80502         0.44192        -4.30244
   C       -4.60810         0.84309        -5.49789
   C       -4.55362        -0.24181        -6.59177
   N       -4.73850         0.36170        -7.89517
   C       -6.05728         1.23475        -5.17956
   N       -6.62562         1.97947        -6.29367
   C       -2.37195         0.64601        -4.25452
   C       -1.51309         1.04350        -5.20774
   C       -0.04637         1.14970        -4.94644
   C        0.36248         0.76090        -3.56188
   C       -0.50992         0.33679        -2.62884
   C       -1.88887         0.24384        -2.92968
   C       -2.98139        -0.22536        -2.23178
   C       -3.10328        -0.74158        -0.92033
   C       -4.30177        -1.21696        -0.49831
   C        0.35548         2.57337        -5.26181
   C        0.74886         2.96943        -6.46684
   C        1.07321         4.35154        -6.80862
   C        0.49157         5.05407        -7.84268
   C       -0.53410         4.73412        -8.83914
   O       -0.82162         5.56382        -9.67457
   C       -1.20962         3.39108        -8.76749
   S        1.06056         6.69590        -7.92181
   C        2.01873         6.45968        -6.54766
   C        1.97921         5.16967        -6.06058
   C        2.76249         4.79080        -4.91490
   C        3.37386         3.60947        -4.65405
   C        3.86360         3.20680        -3.33273
   C        4.18947         4.02478        -2.28926
   C        4.15775         5.43663        -2.32510
   N        4.16399         6.58365        -2.28947
   C        4.65417         3.56291        -1.03758
   N        5.03292         3.25057        -0.00089
   C        3.95115         1.75397        -3.34980
   C        3.71157         1.29376        -4.66624
   C        3.71895        -0.06294        -4.95042
   C        3.95910        -0.95551        -3.91701
   C        4.19855        -0.50542        -2.62556
   C        4.20071         0.84910        -2.32861
   C        3.51075         2.44640        -5.52744
   C        3.64296         2.47057        -6.88721
   C        3.75964         3.65657        -7.64302
   N        3.93164         4.58546        -8.29367
   C        3.74405         1.31088        -7.68339
   N        3.77375         0.39449        -8.37349
   H       -3.35145        -3.20403        -6.93489
   H       -0.99315        -2.73538        -6.45263
   H       -0.17438        -2.63713        -4.13630
   H       -1.69419        -3.06552        -2.25089
   H       -7.78737        -3.32229        -3.72419
   H       -8.21143        -5.60590        -2.35675
   H       -9.41987        -4.85387        -3.41358
   H       -9.91187        -6.13520        -2.31180
   H       -6.96058        -0.91730         1.01081
   H       -6.25445        -0.66890        -3.24105
   H       -4.12625         1.72786        -5.93131
   H       -5.29917        -1.01912        -6.34954
   H       -3.56622        -0.71696        -6.57770
   H       -5.60639         0.89292        -7.88716
   H       -4.81519        -0.35892        -8.60580
   H       -6.07442         1.79447        -4.22895
   H       -6.67065         0.33808        -5.05621
   H       -6.14565         2.86683        -6.40593
   H       -7.60577         2.17746        -6.12445
   H       -1.84552         1.30115        -6.20395
   H        0.46711         0.49400        -5.66679
   H        1.41599         0.83160        -3.34134
   H       -0.16535         0.05314        -1.64500
   H       -2.24043        -0.75987        -0.27165
   H       -4.41759        -1.62470         0.49530
   H        0.24043         3.28088        -4.45254
   H        0.82320         2.24866        -7.27287
   H       -0.52305         2.61967        -9.11157
   H       -2.07853         3.39482        -9.42050
   H       -1.51255         3.16642        -7.74838
   H        2.63476         7.25318        -6.17086
   H        2.83379         5.56549        -4.16233
   H        3.53221        -0.42471        -5.94858
   H        3.95968        -2.01514        -4.12152
   H        4.38416        -1.21873        -1.83754
   H        4.38417         1.18091        -1.32002
*
