# ORCA input file
# SCF done       -206.433743880957          0.000297714822
! CAM-B3LYP def2-SVP def2/J RIJCOSX Grid4 TightSCF
%maxcore 5000
%tddft
    Mode sTDDFT
    Ethresh 5.0
    maxcore 5000
end

%pal
  nprocs 6
  end
* xyz 0 1
   C        1.40461        -1.24722        -0.39793
   C        2.52962        -0.59486        -0.82318
   C        2.65478         0.79172        -0.67543
   C        1.66230         1.55601        -0.09971
   C        0.48041         0.89932         0.33520
   C        0.36042        -0.50842         0.18679
   N       -0.75398        -1.14686         0.60682
   C       -1.71952        -0.44206         1.13382
   C       -1.61528         0.97605         1.24927
   N       -0.54084         1.60839         0.85906
   C       -2.72553         1.79874         1.81646
   C       -2.93514        -1.17500         1.59812
   C        1.82480         3.00544         0.05803
   C        2.38002         3.75710        -0.98230
   C        2.55532         5.11076        -0.81896
   C        2.18694         5.73925         0.38078
   C        1.63303         5.00097         1.41389
   C        1.45519         3.64010         1.24368
   C        2.50062         7.15206         0.27500
   C        3.05755         7.39152        -0.99084
   C        3.13224         6.11261        -1.79214
   C        2.28375         6.20421        -3.07368
   C        0.82522         6.54379        -2.79147
   C        4.58614         5.76425        -2.16007
   C        5.49236         5.65188        -0.94001
   C        3.45711         8.65600        -1.35366
   C        3.31743         9.70946        -0.44477
   C        2.76079         9.45952         0.81046
   C        2.34721         8.19212         1.17742
   C        3.77650        11.05680        -0.80319
   C        4.45718        11.82481         0.09999
   C        4.93779        13.10283        -0.27148
   C        5.66604        14.04279         0.43424
   C        6.11024        13.93378         1.85721
   C        7.64314        13.95891         1.98451
   N        8.03990        13.31000         3.22162
   C        5.43889        15.01887         2.71649
   N        5.66330        14.77574         4.13562
   C        5.91348        15.14293        -0.46900
   C        6.60440        16.28856        -0.32790
   C        6.76475        17.26115        -1.44700
   C        6.03929        16.89152        -2.70053
   C        5.34926        15.74322        -2.83027
   C        5.27312        14.82494        -1.75705
   C        4.68669        13.58336        -1.62425
   C        3.95515        12.77399        -2.52479
   C        3.52312        11.55209        -2.12338
   C        6.35108        18.63372        -0.97340
   C        7.21616        19.60667        -0.69816
   C        6.89959        20.94603        -0.22592
   C        5.61929        21.50110        -0.34084
   C        5.39044        22.77544         0.12008
   C        6.42277        23.52102         0.71326
   C        7.69470        22.98406         0.82790
   C        7.92111        21.70769         0.34975
   C        5.89243        24.81161         1.10825
   C        4.53691        24.86430         0.74906
   C        4.11180        23.58030         0.07608
   C        2.97368        22.89297         0.85120
   C        3.32112        22.65061         2.31500
   C        3.66562        23.83242        -1.37666
   C        4.73841        24.51704        -2.21489
   C        3.77906        25.97704         1.02637
   C        4.37117        27.06065         1.68002
   C        5.72315        27.00513         2.02167
   C        6.49030        25.88913         1.74180
   C        3.57674        28.24545         2.02129
   C        4.06914        29.51997         1.84271
   C        3.31664        30.65443         2.17093
   C        2.05567        30.53568         2.68894
   C        1.51414        29.25430         2.89698
   C        2.27316        28.10048         2.56653
   N        1.76597        26.87235         2.80173
   C        0.56581        26.76956         3.30699
   C       -0.20883        27.92943         3.60798
   N        0.27048        29.12861         3.41038
   C       -1.58914        27.82129         4.16747
   C        0.04527        25.39160         3.55504
   H        1.28829        -2.31532        -0.49277
   H        3.34075        -1.14942        -1.27249
   H        3.56708         1.27130        -1.00014
   H       -2.93250         1.50210         2.84392
   H       -3.63658         1.66020         1.23613
   H       -2.44022         2.84676         1.79403
   H       -2.79960        -2.23885         1.42564
   H       -3.81542        -0.83149         1.05645
   H       -3.10278        -0.99922         2.65976
   H        2.64641         3.27187        -1.91058
   H        1.34906         5.47661         2.34112
   H        1.03578         3.04955         2.04262
   H        2.33768         5.24805        -3.59908
   H        2.71531         6.96784        -3.72492
   H        0.37025         5.78284        -2.16124
   H        0.26582         6.60053        -3.72282
   H        0.74655         7.50187        -2.28224
   H        4.97350         6.53645        -2.82851
   H        4.59184         4.81764        -2.70536
   H        5.51743         6.59225        -0.39397
   H        6.50630         5.40454        -1.24689
   H        5.13542         4.87501        -0.26730
   H        3.90524         8.83834        -2.31992
   H        2.63583        10.28212         1.49984
   H        1.91367         8.01864         2.15144
   H        4.66859        11.44177         1.08779
   H        5.79007        12.96053         2.24259
   H        8.00094        14.99871         1.90596
   H        8.07720        13.39300         1.15285
   H        7.59048        13.79238         3.99574
   H        9.04490        13.37335         3.34595
   H        4.36742        15.05043         2.45234
   H        5.86375        15.99819         2.48061
   H        5.23815        13.89290         4.40290
   H        5.22927        15.50744         4.68892
   H        7.08918        16.56173         0.59860
   H        7.84208        17.30680        -1.67459
   H        6.10626        17.60332        -3.50983
   H        4.84818        15.50495        -3.75806
   H        3.75142        13.13601        -3.52253
   H        2.95197        10.92926        -2.79681
   H        5.28635        18.76525        -0.84887
   H        8.27649        19.40542        -0.80565
   H        4.82688        20.93502        -0.80685
   H        8.49688        23.55174         1.27577
   H        8.91041        21.27861         0.42896
   H        2.74496        21.94038         0.36766
   H        2.08290        23.52192         0.79113
   H        4.21324        22.03369         2.40015
   H        2.50107        22.14022         2.81618
   H        3.50536        23.59419         2.82362
   H        2.76747        24.45361        -1.36193
   H        3.40397        22.87558        -1.83416
   H        5.00212        25.48109        -1.78561
   H        4.37664        24.67804        -3.22805
   H        5.63698        23.90576        -2.26275
   H        2.73878        26.02687         0.74719
   H        6.16841        27.84161         2.54103
   H        7.53286        25.85782         2.02245
   H        5.05414        29.64968         1.41782
   H        3.74406        31.63263         2.00465
   H        1.45597        31.39497         2.94449
   H       -1.57279        27.29232         5.11934
   H       -2.23342        27.26804         3.48558
   H       -1.99409        28.81799         4.31695
   H        0.80197        24.66681         3.26768
   H       -0.86163        25.21741         2.97724
   H       -0.19712        25.26064         4.60859
*
