# ORCA input file
# SCF done       -234.863902826466          0.000495452695
! CAM-B3LYP def2-SVP def2/J RIJCOSX Grid4 TightSCF
%maxcore 5000
%tddft
    Mode sTDDFT
    Ethresh 5.0
    maxcore 5000
end

%pal
  nprocs 6
  end
* xyz 0 1
   C        1.63477        -5.73812       -11.17988
   C        1.17018        -4.66697       -10.45304
   C        0.83389        -3.41696       -11.01090
   N        0.53582        -2.37964       -11.40125
   C        1.10444        -4.65153        -9.04674
   N        1.06461        -4.59014        -7.90049
   C        2.02772        -5.69054       -12.58820
   C        2.84630        -6.79972       -12.86734
   C        3.40277        -6.99283       -14.11437
   C        3.12455        -6.06403       -15.11070
   C        2.29869        -4.96768       -14.84436
   C        1.74802        -4.76979       -13.58162
  Cl        1.95192        -3.83805       -16.08973
  Cl        3.79924        -6.27033       -16.67703
   C        2.96035        -7.64147       -11.65515
   O        3.61641        -8.64626       -11.50663
   C        2.05400        -7.00985       -10.66011
   C        1.74439        -7.70005        -9.51696
   C        0.66602        -7.53944        -8.63664
   S        0.73883        -8.26127        -7.04408
   C       -0.83800        -7.69963        -6.57312
   C       -1.43360        -7.01994        -7.65111
   C       -0.57680        -6.93420        -8.78411
   S       -1.31795        -6.16452       -10.13926
   C       -2.77432        -5.88830        -9.20828
   C       -3.83833        -5.19453        -9.93458
   O       -3.71707        -5.01338       -11.12736
   C       -5.01792        -4.68748        -9.14132
   C       -4.59756        -3.47249        -8.31028
   C       -2.67159        -6.39290        -7.93875
   F       -3.68551        -6.31900        -7.06707
   C       -1.22098        -7.97432        -5.24128
   C       -2.37373        -7.61587        -4.61858
   C       -2.70344        -7.84878        -3.24504
   C       -3.93394        -7.40391        -2.79553
   C       -4.29431        -7.54743        -1.44550
   C       -5.43667        -7.15953        -0.75651
   C       -6.65805        -6.46027        -1.25255
   C       -6.34179        -4.97014        -1.49384
   N       -7.57458        -4.20572        -1.57495
   C       -7.30450        -7.14861        -2.47992
   N       -6.73906        -6.72492        -3.75180
   C       -5.21198        -7.49114         0.63221
   C       -5.95607        -7.26012         1.72886
   C       -5.46937        -7.61481         3.09387
   C       -4.15303        -8.32997         3.11777
   C       -3.42738        -8.56437         2.00965
   C       -3.89469        -8.13623         0.74343
   C       -3.34984        -8.16657        -0.52133
   C       -2.11079        -8.64330        -1.01463
   C       -1.80301        -8.48887        -2.32500
   C       -6.50122        -8.43390         3.81770
   C       -7.17326        -7.99714         4.88759
   C       -8.12602        -8.75529         5.63239
   S       -8.52634       -10.41525         5.31620
   C       -9.67800       -10.50882         6.63145
   C       -9.71840        -9.28251         7.30568
   C       -8.85091        -8.32055         6.72231
   S       -8.87542        -6.79878         7.55082
   C      -10.00341        -7.43423         8.72926
   C      -10.48838        -6.61234         9.85243
   O      -11.19040        -7.07498        10.71779
   C      -10.03463        -5.16956         9.81639
   C      -10.57755        -4.37821        10.99721
   C      -10.33723        -8.73889         8.46450
   F      -11.14768        -9.43522         9.24830
   C      -10.36314       -11.72784         6.81181
   C      -11.48218       -11.93387         7.56332
   C      -12.04229       -13.22195         7.69254
   C      -13.20697       -13.50056         8.35516
   C      -13.77372       -14.81023         8.61055
   C      -13.31556       -16.01679         8.14799
   C      -13.92238       -17.25825         8.43533
   N      -14.36237       -18.30102         8.62658
   C      -12.19532       -16.20306         7.31099
   N      -11.30403       -16.44113         6.62684
   C      -14.95184       -14.62215         9.45536
   C      -15.14702       -13.24677         9.66907
   C      -14.09763       -12.47910         8.96320
   O      -14.02096       -11.27464         8.87667
   C      -16.19134       -12.76784        10.43272
   C      -17.06359       -13.68524        11.00522
   C      -16.87564       -15.05727        10.80140
   C      -15.82388       -15.53472        10.02734
  Cl      -17.95890       -16.18132        11.51673
  Cl      -18.37403       -13.13213        11.96570
   H        4.03758        -7.84243       -14.31019
   H        1.11108        -3.91746       -13.40963
   H        2.40512        -8.53456        -9.30226
   H       -5.40247        -5.47182        -8.48895
   H       -5.79526        -4.39692        -9.84948
   H       -3.84741        -3.74310        -7.57133
   H       -5.46084        -3.06385        -7.79111
   H       -4.18428        -2.70068        -8.95547
   H       -0.46722        -8.51808        -4.68757
   H       -3.13290        -7.08793        -5.17119
   H       -4.63718        -6.94552        -3.47552
   H       -7.40675        -6.48931        -0.45522
   H       -5.69167        -4.88032        -2.37588
   H       -5.78447        -4.59743        -0.62930
   H       -8.09088        -4.43845        -2.41606
   H       -7.37677        -3.21212        -1.59866
   H       -8.39061        -6.97297        -2.42940
   H       -7.13940        -8.22505        -2.38592
   H       -7.08220        -5.80782        -4.01531
   H       -7.00285        -7.37258        -4.48490
   H       -6.92667        -6.78568         1.67912
   H       -5.35603        -6.66750         3.64519
   H       -3.81029        -8.64508         4.09138
   H       -2.47436        -9.06888         2.07328
   H       -1.41846        -9.11905        -0.33562
   H       -0.85377        -8.84591        -2.69161
   H       -6.66513        -9.43145         3.43413
   H       -7.01388        -6.99426         5.26610
   H      -10.36812        -4.72988         8.87218
   H       -8.94094        -5.15501         9.81298
   H      -11.66422        -4.40094        10.99481
   H      -10.24522        -3.34470        10.94785
   H      -10.23489        -4.81587        11.93124
   H       -9.96103       -12.56326         6.24897
   H      -11.97506       -11.12128         8.07051
   H      -11.48281       -14.03921         7.25532
   H      -16.32099       -11.70750        10.58171
   H      -15.71239       -16.59820         9.89445
*
