# ORCA input file
# SCF done       -229.465801018530          0.000775675343
! CAM-B3LYP def2-SVP def2/J RIJCOSX Grid4 TightSCF
%maxcore 5000
%tddft
    Mode sTDDFT
    Ethresh 5.0
    maxcore 5000
end

%pal
  nprocs 6
  end
* xyz 0 1
   C        0.31709        -0.19030         1.74103
   C       -0.07583        -1.23258         2.53194
   C        0.46178        -1.48880         3.81246
   N        0.91180        -1.76182         4.83145
   C       -1.06629        -2.16804         2.16510
   N       -1.88077        -2.93872         1.92165
   C        1.18777         0.91003         2.12935
   C        1.09458         1.93634         1.16924
   C        1.82714         3.10115         1.28292
   C        2.66432         3.25594         2.38313
   C        2.74171         2.24570         3.35139
   C        2.01441         1.06945         3.23246
  Cl        3.74230         2.46653         4.72489
  Cl        3.59627         4.68172         2.56016
   C        0.16014         1.53679         0.09378
   O       -0.22160         2.18047        -0.84593
   C       -0.14736         0.09762         0.38821
   C       -0.53905        -0.72268        -0.60402
   C       -0.47412        -2.17365        -0.60105
   C        0.65755        -2.86406        -0.16081
   C        1.94814        -2.32804         0.33322
   O        2.35751        -1.19421         0.29448
   N        2.64366        -3.42394         0.83354
   C        2.00869        -4.63869         0.53404
   O        2.44969        -5.72370         0.78280
   C        0.71731        -4.25789        -0.10306
   C       -0.33168        -5.05353        -0.52511
   C       -1.45045        -4.37980        -1.00515
   C       -1.52770        -2.99067        -1.03931
   C       -2.82671        -2.45806        -1.49837
   O       -3.15085        -1.31186        -1.57724
   S       -3.89348        -3.83057        -1.93359
   C       -2.67028        -5.07000        -1.48652
   O       -2.84993        -6.24306        -1.58159
   C        3.83435        -3.33979         1.56558
   C        4.10696        -2.23965         2.27819
   C        5.25395        -1.90705         3.06158
   S        5.08331        -0.47933         4.03099
   C        6.70160        -0.62436         4.61648
   C        7.33998        -1.70997         4.06627
   C        6.51840        -2.44410         3.18127
   C        6.98326        -3.68410         2.48522
   C        8.51140        -3.83555         2.54820
   C        8.87537        -5.18038         2.15771
   N        9.13742        -6.25048         1.85825
   C        9.01748        -3.52766         3.97269
   C       10.42647        -3.82569         4.09425
   N       11.54821        -4.01958         4.18612
   C        8.78348        -2.04128         4.27033
   C        7.16526         0.32570         5.61002
   C        7.55689        -0.07021         6.89249
   C        7.60436        -1.42638         7.48618
   O        7.36116        -2.49320         6.98905
   N        8.01022        -1.24719         8.81894
   C        8.22232         0.10550         9.13406
   O        8.57003         0.54100        10.19252
   C        7.90851         0.84798         7.88293
   C        7.88891         2.21295         7.66408
   C        7.50951         2.61967         6.38972
   C        7.16401         1.71519         5.38813
   C        6.86734         2.34583         4.08377
   O        6.64648         1.81155         3.03898
   S        6.95546         4.13193         4.26480
   C        7.43605         4.04410         5.98993
   O        7.65496         4.99840         6.66855
   C        8.14867        -2.33749         9.65849
   C        8.59352        -2.31737        10.92795
   C        8.67192        -3.53750        11.65890
   C        9.13456        -3.66076        12.93110
   C        9.22455        -4.88751        13.71215
   C        8.78464        -6.13043        13.34765
   C        8.89379        -7.28046        14.16149
   N        8.95151        -8.25001        14.77201
   C        8.15048        -6.45511        12.12818
   N        7.62471        -6.80262        11.16871
   C        9.85412        -4.55070        14.98532
   C       10.11663        -3.16968        15.01872
   C        9.67521        -2.54363        13.75537
   O        9.75106        -1.37309        13.46375
   C       10.70981        -2.56624        16.10939
   C       11.05342        -3.35934        17.19654
   C       10.79853        -4.73719        17.17185
   C       10.19950        -5.33992        16.07196
  Cl       11.23120        -5.70716        18.51956
  Cl       11.79328        -2.64951        18.57147
   H        1.74971         3.87443         0.53488
   H        2.11064         0.31174         3.99348
   H       -0.88194        -0.25135        -1.51914
   H       -0.29974        -6.13032        -0.47670
   H        4.42752        -4.23938         1.53322
   H        3.37255        -1.44571         2.27070
   H        6.66108        -3.66908         1.44087
   H        6.51703        -4.55323         2.96295
   H        8.98692        -3.13829         1.84648
   H        8.46769        -4.13660         4.70066
   H        9.39254        -1.43336         3.59070
   H        9.10094        -1.80952         5.28710
   H        8.14551         2.92561         8.43151
   H        7.85573        -3.26252         9.17311
   H        8.89353        -1.40088        11.41253
   H        8.33516        -4.42354        11.13599
   H       10.90044        -1.50455        16.11233
   H       10.02117        -6.40245        16.09024
*
