# ORCA input file
# SCF done       -223.231567653188          0.000778600934
! CAM-B3LYP def2-SVP def2/J RIJCOSX Grid4 TightSCF
%maxcore 5000
%tddft
    Mode sTDDFT
    Ethresh 5.0
    maxcore 5000
end

%pal
  nprocs 6
  end
* xyz 0 1
   C        9.68472         3.59955         9.19166
   C        8.77676         3.51286        10.21105
   C        8.06460         4.58426        10.78257
   N        7.44976         5.41255        11.28543
   C        8.47838         2.25075        10.77193
   N        8.22336         1.23046        11.22795
   N       10.08851         4.71767         8.52847
   C        9.62239         6.05022         8.83227
   C       11.00735         4.52680         7.51322
   O       11.45125         5.41686         6.83298
   C       11.35389         3.09479         7.40147
   S       10.48555         2.16057         8.58889
   C       12.19690         2.64872         6.45501
   C       12.62101         1.28479         6.22181
   C       12.59169         0.77035         4.92150
   C       12.15553         1.43589         3.67294
   O       11.75950         2.56587         3.52796
   N       12.28907         0.47469         2.66944
   C       12.76247        -0.75112         3.16658
   O       12.95063        -1.73258         2.49943
   C       12.95296        -0.54505         4.61885
   C       13.39258        -1.42341         5.59175
   C       13.47097        -0.91538         6.88263
   C       13.10061         0.39636         7.20491
   C       13.35342         0.75211         8.60891
   O       13.17859         1.80932         9.14735
   S       14.01166        -0.67234         9.47728
   C       13.97651        -1.71296         8.01532
   O       14.32436        -2.85479         8.00378
   C       11.97822         0.60761         1.31830
   C       11.57582         1.73782         0.72696
   C       11.21900         1.88158        -0.66747
   C       10.94642         3.14767        -1.14383
   C       10.56091         3.33855        -2.48192
   C       10.23459         4.49600        -3.18886
   C       10.23157         5.87649        -2.64770
   C       11.11498         6.83686        -3.46581
   N       11.33759         8.06814        -2.72194
   C        8.77067         6.41695        -2.53820
   N        8.63851         7.63302        -1.78694
   C        9.84991         4.07699        -4.51781
   C        9.38511         4.76198        -5.58100
   C        8.98369         4.07462        -6.83897
   C        9.22088         2.60477        -6.85644
   C        9.69031         1.93126        -5.78693
   C       10.00084         2.61834        -4.59324
   C       10.43822         2.18312        -3.35056
   C       10.73731         0.90035        -2.84742
   C       11.11706         0.76042        -1.54805
   C        9.52867         4.81974        -8.02984
   C       10.26984         4.27729        -8.99041
   C       10.76485         4.99466       -10.15319
   C       12.05997         4.74703       -10.61952
   C       13.05888         3.78611       -10.10770
   O       12.97382         3.02612        -9.17812
   N       14.17656         3.92551       -10.94802
   C       13.97940         4.91284       -11.93524
   O       14.79705         5.22123       -12.75995
   C       12.61487         5.42335       -11.71364
   C       11.90701         6.38331       -12.41076
   C       10.60019         6.60376       -11.99290
   C       10.02369         5.92832       -10.90720
   C        8.58818         6.21370       -10.74013
   O        7.80189         5.72636        -9.97893
   S        8.08265         7.45083       -11.94710
   C        9.71093         7.54627       -12.69171
   O        9.98229         8.26609       -13.60557
   C       15.35758         3.21324       -10.90363
   C       15.66629         2.22460       -10.04398
   C       16.92475         1.56782       -10.13993
   C       17.34016         0.54906        -9.34810
   C       16.60644        -0.07678        -8.24696
   O       15.50232         0.20835        -7.84471
   N       17.36639        -1.09503        -7.68242
   C       18.59285        -1.31363        -8.22716
   C       19.52085        -2.24953        -7.85269
   C       19.38274        -3.18159        -6.80836
   N       19.33232        -3.96442        -5.96998
   C       20.74848        -2.32896        -8.54467
   N       21.74820        -2.40053        -9.10148
   S       18.90977        -0.21202        -9.54921
   C       16.82945        -1.85292        -6.57762
   H        8.54558         6.12829         8.68034
   H       10.13783         6.72640         8.14984
   H        9.86047         6.31742         9.86187
   H       12.53114         3.38584         5.73307
   H       13.67356        -2.44084         5.37153
   H       12.11238        -0.32924         0.79521
   H       11.49571         2.63711         1.31980
   H       11.02279         3.99379        -0.47618
   H       10.63955         5.84706        -1.63066
   H       10.61502         7.10749        -4.39786
   H       12.05034         6.31393        -3.72521
   H       11.90746         7.88791        -1.90127
   H       11.82791         8.74622        -3.29419
   H        8.15074         5.64729        -2.07016
   H        8.38508         6.59872        -3.54403
   H        9.28078         8.33534        -2.14345
   H        8.84152         7.48592        -0.80509
   H        9.26101         5.83486        -5.56668
   H        7.88915         4.22004        -6.92192
   H        8.95114         2.08959        -7.76475
   H        9.82790         0.86112        -5.82645
   H       10.65598         0.04032        -3.49492
   H       11.33306        -0.22276        -1.16241
   H        9.26988         5.86873        -8.05567
   H       10.61107         3.25501        -8.90690
   H       12.32436         6.91898       -13.24820
   H       16.04916         3.53361       -11.67546
   H       14.97717         1.90625        -9.27765
   H       17.60114         1.90835       -10.91479
   H       15.83814        -1.44697        -6.37333
   H       17.45808        -1.74765        -5.69316
   H       16.74752        -2.90897        -6.83574
*
