# ORCA input file
# SCF done       -223.823508175381          0.000154295983
! CAM-B3LYP def2-SVP def2/J RIJCOSX Grid4 TightSCF
%maxcore 5000
%tddft
    Mode sTDDFT
    Ethresh 5.0
    maxcore 5000
end

%pal
  nprocs 6
  end
* xyz 0 1
   C       -3.61765         0.45014         2.24062
   C       -4.43203         1.37824         2.83337
   C       -5.83856         1.35298         2.76097
   N       -6.98424         1.39613         2.69771
   C       -3.95470         2.42222         3.65184
   N       -3.63290         3.24276         4.38729
   C       -4.05291        -0.81570         1.66341
   C       -2.93192        -1.69537         1.60626
   C       -3.05172        -2.97885         1.15745
   C       -4.31587        -3.44617         0.73209
   C       -5.43647        -2.56698         0.77315
   C       -5.28470        -1.24362         1.24614
   C       -6.69147        -3.04560         0.34490
   C       -6.83606        -4.33161        -0.09889
   C       -5.73246        -5.19689        -0.13845
   C       -4.49966        -4.76355         0.26779
   C       -1.72907        -0.98738         2.08489
   O       -0.61037        -1.42731         2.22204
   C       -2.16795         0.41901         2.30900
   C       -1.25374         1.41202         2.42344
   C       -1.46632         2.82879         2.27621
   C       -2.42126         3.32587         1.37387
   C       -2.59784         4.68015         1.25911
   C       -1.84756         5.56925         2.05098
   C       -0.88467         5.08872         2.92679
   C       -0.68510         3.72623         3.01474
   C       -2.26363         6.91927         1.73973
   C       -3.25207         6.86494         0.74215
   C       -3.54309         5.43490         0.35472
   C       -3.22320         5.17509        -1.12931
   C       -1.78263         5.51464        -1.49287
   C       -5.01040         5.06257         0.64118
   C       -5.44391         5.40302         2.06195
   C       -3.81783         8.01619         0.25605
   C       -3.41522         9.26144         0.76325
   C       -2.45219         9.29878         1.77838
   C       -1.87138         8.14192         2.26179
   C       -4.02350        10.46142         0.22418
   S       -5.63820        10.33495        -0.41901
   C       -5.65090        12.01033        -0.89024
   C       -4.44602        12.60592        -0.58816
   C       -3.53542        11.74111         0.06197
   C       -2.17832        12.20590         0.50674
   C       -2.15715        12.53089         1.98188
   C       -3.21678        12.77072         2.73170
   C       -1.68628        13.47394        -0.24044
   C       -2.52637        13.82032        -1.46124
   C       -3.99359        13.94989        -1.05525
   C       -6.82463        12.53669        -1.51495
   C       -7.19792        13.83004        -1.49919
   C       -8.36496        14.37961        -2.15147
   C       -9.05992        13.69102        -3.15688
   C      -10.14984        14.27752        -3.75077
   C      -10.58328        15.55584        -3.35627
   C       -9.90406        16.24894        -2.36380
   C       -8.80182        15.65952        -1.78080
   C      -11.73463        15.91845        -4.15039
   C      -12.01092        14.86568        -5.04416
   C      -11.02425        13.73677        -4.85812
   C      -10.21152        13.49009        -6.14318
   C       -9.47843        14.73521        -6.62802
   C      -11.72977        12.43504        -4.43474
   C      -12.55740        12.59666        -3.16546
   C      -13.05817        14.95766        -5.92257
   C      -13.83489        16.13185        -5.95709
   C      -13.57159        17.15585        -5.03549
   C      -12.53338        17.05393        -4.13367
   C      -14.90797        16.20104        -6.90786
   C      -15.41507        17.29715        -7.53566
   C      -16.57145        17.28905        -8.41825
   C      -17.51689        16.30086        -8.51071
   C      -18.63573        16.35696        -9.36750
   N      -19.56201        16.33818       -10.04591
   C      -17.53121        15.10943        -7.75551
   N      -17.62847        14.12441        -7.17244
   C      -16.60294        18.55855        -9.13239
   C      -15.52663        19.36405        -8.66641
   C      -14.76179        18.63096        -7.64036
   O      -13.76940        19.03210        -7.07206
   C      -15.30139        20.62009        -9.15039
   C      -16.16282        21.14067       -10.14166
   C      -17.23923        20.33870       -10.61900
   C      -17.44491        19.03977       -10.10043
   C      -18.08991        20.86650       -11.61179
   C      -17.89022        22.12579       -12.10802
   C      -16.83075        22.91502       -11.63599
   C      -15.98572        22.43294       -10.67366
   H       -2.19281        -3.63290         1.13048
   H       -6.14736        -0.59555         1.26157
   H       -7.53861        -2.37633         0.38059
   H       -7.80230        -4.68992        -0.42119
   H       -5.86429        -6.20857        -0.49202
   H       -3.64653        -5.42562         0.23994
   H       -0.23112         1.08778         2.59030
   H       -2.98055         2.63836         0.75460
   H       -0.29757         5.76708         3.52680
   H        0.05437         3.33179         3.69589
   H       -3.90089         5.77433        -1.74084
   H       -3.41619         4.12304        -1.35072
   H       -1.57552         6.56422        -1.29601
   H       -1.60742         5.32094        -2.54869
   H       -1.08604         4.91345        -0.91246
   H       -5.13829         3.99133         0.46746
   H       -5.65119         5.59181        -0.06739
   H       -4.78255         4.94338         2.79277
   H       -6.45390         5.04068         2.23916
   H       -5.43054         6.47891         2.21972
   H       -4.57011         7.97762        -0.51869
   H       -2.18706        10.24423         2.22173
   H       -1.13282         8.19507         3.04751
   H       -1.46892        11.38975         0.32375
   H       -1.16191        12.62469         2.39976
   H       -4.21982        12.69497         2.34580
   H       -3.12560        13.04011         3.77025
   H       -0.64433        13.33723        -0.53391
   H       -1.72418        14.32238         0.44803
   H       -2.43154        13.03935        -2.21932
   H       -2.17028        14.75753        -1.89276
   H       -4.59896        14.27488        -1.90323
   H       -4.08751        14.69382        -0.25861
   H       -7.46090        11.79721        -1.98280
   H       -6.61710        14.53614        -0.92231
   H       -8.72344        12.71591        -3.47434
   H      -10.22633        17.23334        -2.05911
   H       -8.25960        16.18898        -1.01009
   H      -10.89046        13.14145        -6.92429
   H       -9.48752        12.69525        -5.95157
   H      -10.18071        15.53833        -6.84021
   H       -8.92518        14.51294        -7.53767
   H       -8.77595        15.08504        -5.87471
   H      -10.97295        11.66348        -4.27796
   H      -12.37740        12.10643        -5.25016
   H      -11.92914        12.90818        -2.33375
   H      -13.03000        11.65250        -2.90528
   H      -13.33596        13.34306        -3.30622
   H      -13.27969        14.15618        -6.61305
   H      -14.21141        18.02195        -5.01204
   H      -12.34655        17.84801        -3.42696
   H      -15.32546        15.23790        -7.18042
   H      -14.47681        21.21026        -8.77859
   H      -18.26396        18.45503       -10.48799
   H      -18.90512        20.25560       -11.97105
   H      -18.54809        22.52136       -12.86737
   H      -16.68752        23.90659       -12.03890
   H      -15.16788        23.03564       -10.30624
*
