# ORCA input file
# SCF done       -187.019849061723          0.000780859251
! CAM-B3LYP def2-SVP def2/J RIJCOSX Grid4 TightSCF
%maxcore 5000
%tddft
    Mode sTDDFT
    Ethresh 5.0
    maxcore 5000
end

%pal
  nprocs 6
  end
* xyz 0 1
   C       -3.56356        -1.06189         0.40508
   C       -4.06440        -2.27027         0.82690
   C       -3.27007        -3.40376         1.08206
   N       -2.66599        -4.35482         1.30772
   C       -5.42487        -2.51673         1.10040
   N       -6.50854        -2.79268         1.36293
   C       -2.15281        -0.75009         0.19269
   C       -2.04445         0.62864        -0.11243
   C       -0.84368         1.23599        -0.38355
   C        0.31172         0.45028        -0.32450
   C        0.19598        -0.92197        -0.00919
   C       -1.02375        -1.54244         0.24379
   S        1.75080        -1.69140         0.01831
   C        2.52671        -0.19540        -0.37191
   C        1.66709         0.83488        -0.52492
   C       -3.38352         1.24679        -0.07960
   O       -3.62482         2.41723        -0.31936
   C       -4.32490         0.14431         0.20268
   C       -5.69153         0.24054         0.05323
   C       -6.39697         1.45669         0.10567
   C       -5.95786         2.54815         0.89260
   C       -6.49457         3.86715         0.70130
   N       -5.86632         4.88927         1.26175
   C       -4.86564         4.69465         2.09894
   C       -4.57195         3.36524         2.52009
   N       -5.09385         2.33986         1.88692
   C       -3.72878         3.12855         3.63190
   N       -3.03397         2.96422         4.52917
   C       -4.11865         5.78868         2.57795
   N       -3.45377         6.63497         2.97674
   C       -7.65793         4.13955        -0.08887
   C       -8.22769         2.98588        -0.70406
   C       -7.59418         1.68398        -0.61734
   N       -8.22092         0.77191        -1.34736
   S       -9.49195         1.45322        -2.06849
   N       -9.28780         2.94891        -1.50163
   C       -8.03955         5.48052        -0.27724
   S       -6.84894         6.71085         0.08591
   C       -7.86046         7.97076        -0.57787
   C       -9.12857         7.44739        -0.92650
   C       -9.22813         6.08039        -0.75988
   C      -10.52690         5.37341        -0.97520
   C      -11.68946         6.35769        -0.91356
   C      -11.45076         7.50234        -1.89400
   O      -12.62833         8.28388        -1.94252
   C      -12.69083         9.19441        -3.00933
   C      -10.23557         8.31831        -1.43027
   C       -7.43639         9.28455        -0.67877
   C       -6.14728         9.74706        -0.42251
   C       -5.69880        11.07603        -0.52372
   C       -4.36114        11.24115        -0.25662
   C       -3.70835        10.04482         0.06172
   S       -4.82921         8.70494         0.03265
   C       -2.36396         9.80269         0.35640
   C       -1.28528        10.69975         0.42867
   C       -0.09370        10.09382         0.72740
   C       -0.18049         8.69730         0.91435
   S       -1.83785         8.18189         0.67969
   C        0.87102         7.85455         1.22119
   C        0.83555         6.47884         1.48316
   C       -0.31021         5.62220         1.59151
   C        0.11828         4.34573         1.90405
   C       -0.60900         3.16786         2.15202
   C        0.09894         2.04532         2.50086
   C       -0.31905         0.73119         2.83414
   C        0.80698        -0.05593         3.07117
   C        1.95611         0.75751         2.90184
   C        1.55287         2.05369         2.56166
   C        2.27956         3.21412         2.30954
   C        1.57011         4.36678         1.99204
   C        1.97847         5.68307         1.73150
   C        0.76691        -1.45809         3.41170
   C        1.82889        -2.23738         3.59721
   H       -0.79339         2.28689        -0.62427
   H       -1.06045        -2.59590         0.46629
   H        3.59490        -0.18245        -0.46905
   H        1.96406         1.83984        -0.76569
   H       -6.26864        -0.64195        -0.19166
   H      -10.65152         4.59471        -0.22267
   H      -10.51443         4.87678        -1.94729
   H      -11.78989         6.77256         0.09033
   H      -12.62323         5.85714        -1.16766
   H      -11.24885         7.08464        -2.89550
   H      -13.69554         9.61262        -2.99439
   H      -12.52074         8.69275        -3.97024
   H      -11.96372        10.00767        -2.90224
   H      -10.56341         8.98608        -0.62588
   H       -9.86337         8.94200        -2.24764
   H       -8.15104        10.02635        -1.01049
   H       -6.36365        11.87853        -0.79094
   H       -3.85148        12.18740        -0.29156
   H       -1.40380        11.75523         0.26204
   H        0.84088        10.61799         0.82649
   H        1.84698         8.32375         1.27222
   H       -1.33587         5.92105         1.49456
   H       -1.68428         3.15875         2.06554
   H       -1.34130         0.40729         2.90032
   H        2.97408         0.43353         3.01709
   H        3.35885         3.22044         2.37339
   H        2.99334         6.03713         1.72096
   H       -0.22756        -1.87585         3.50384
   H        2.83630        -1.86751         3.51036
   H        1.72304        -3.27963         3.84092
*
