# ORCA input file
# SCF done       -206.984561685480          0.000766987205
! CAM-B3LYP def2-SVP def2/J RIJCOSX Grid4 TightSCF
%maxcore 5000
%tddft
    Mode sTDDFT
    Ethresh 5.0
    maxcore 5000
end

%pal
  nprocs 6
  end
* xyz 0 1
   C       -4.13615         0.93448         1.16229
   C       -2.95453         1.50388         1.56971
   C       -2.03163         0.87987         2.43318
   N       -1.23653         0.42255         3.12361
   C       -2.51034         2.78889         1.20125
   N       -2.10099         3.83169         0.94484
   C       -4.65183        -0.35528         1.60395
   C       -5.93394        -0.55198         1.03437
   C       -6.68716        -1.67525         1.27007
   C       -6.14960        -2.65467         2.11271
   C       -4.86692        -2.45242         2.67478
   C       -4.10499        -1.31526         2.43473
   S       -4.39191        -3.78807         3.67946
   C       -5.90295        -4.58775         3.33721
   C       -6.72234        -3.89251         2.51290
  Br       -6.25450        -6.26550         4.09766
   C       -6.27321         0.60486         0.18840
   O       -7.25931         0.73077        -0.51415
   C       -5.12879         1.52639         0.28915
   C       -4.94183         2.65385        -0.46866
   N       -5.86076         3.35998        -1.15948
   C       -7.20579         3.50339        -0.97290
   S       -7.99812         3.09659         0.50904
   C       -9.45698         3.80895        -0.09256
   N      -10.59430         3.81517         0.70784
   O      -11.60522         4.34489         0.25272
   O      -10.52018         3.31092         1.81569
   C       -9.33451         4.31451        -1.36111
   C       -8.03941         4.16392        -1.89317
   C       -7.64041         4.61775        -3.19423
   C       -8.44415         5.45143        -3.90593
   C       -8.31283         5.96398        -5.20684
   C       -9.33612         6.72498        -5.72739
   C       -9.50159         7.31195        -7.00527
   C      -10.69870         7.94569        -7.19096
   C      -11.54987         7.89992        -6.06876
   S      -10.76313         7.04841        -4.75792
   C      -12.83803         8.33929        -5.84082
   C      -13.78730         8.99177        -6.65831
   C      -14.99439         9.18562        -6.05960
   C      -15.08327         8.69424        -4.72601
   S      -13.52492         8.01468        -4.26555
   C      -16.19066         8.71568        -3.93365
   N      -16.32388         8.29145        -2.65528
   C      -15.31448         7.76912        -1.75376
   C      -15.19157         6.24350        -1.91192
   C      -14.54358         5.63553        -0.67548
   N      -14.42381         4.18754        -0.72961
   S      -15.05163         3.54059         0.76951
   N      -15.11466         5.04882         1.58950
   C      -15.45610         5.96325         0.52269
   C      -15.34613         7.44004         0.84263
   C      -15.77501         8.29235        -0.36250
   N      -17.22376         8.45914        -0.43509
   S      -17.83556         7.94440        -1.95098
   C      -17.90235         9.32676         0.33805
   C      -17.39604        10.01439         1.39744
   C      -18.14160        10.99227         2.07427
   C      -17.66593        11.91476         2.96852
   C      -16.32888        12.29868         3.34272
   C      -15.17628        12.19477         2.59610
   C      -13.91263        12.64468         3.03203
   N      -12.85174        12.97009         3.32750
   C      -15.09031        11.72273         1.27651
   N      -14.94235        11.37071         0.19028
   C      -16.42636        13.03319         4.60425
   C      -17.79392        13.27341         4.88765
   C      -18.62083        12.63946         3.83938
   O      -19.82685        12.66987         3.72900
   C      -18.20813        13.97046         5.99524
   C      -17.22684        14.44331         6.87417
   C      -15.86546        14.18542         6.59082
   C      -15.44570        13.48789         5.46415
   S      -14.82159        14.84329         7.81435
   C      -16.20982        15.45253         8.67558
   C      -17.39450        15.17655         8.08085
  Br      -15.96360        16.39097        10.28095
   H       -7.66179        -1.79364         0.82343
   H       -3.13238        -1.20928         2.88519
   H       -7.69088        -4.23668         2.19914
   H       -3.93693         3.04241        -0.57648
   H       -5.49288         3.96827        -1.88356
   H      -10.17224         4.75145        -1.87182
   H       -6.70611         4.26671        -3.60966
   H       -9.34684         5.77547        -3.40647
   H       -7.44522         5.74705        -5.81199
   H       -8.73543         7.23920        -7.75731
   H      -10.98994         8.43385        -8.10460
   H      -13.55532         9.28558        -7.66639
   H      -15.83771         9.65548        -6.53396
   H      -17.10612         9.11901        -4.34691
   H      -14.35418         8.23533        -1.98521
   H      -14.60123         6.02430        -2.80145
   H      -16.17984         5.79771        -2.04382
   H      -13.55605         6.09335        -0.51971
   H      -13.44796         3.91491        -0.81435
   H      -14.21091         5.26647         2.00626
   H      -16.49019         5.71647         0.24917
   H      -14.31180         7.68514         1.09411
   H      -15.97303         7.67739         1.70189
   H      -15.35367         9.30417        -0.23627
   H      -18.92849         9.48549         0.03383
   H      -16.37906         9.85123         1.70976
   H      -19.21477        11.01254         1.91878
   H      -19.25626        14.14507         6.18093
   H      -14.39631        13.31129         5.29684
   H      -18.34826        15.47548         8.47569
*
