# ORCA input file
# SCF done       -191.931358704678          0.000736517491
! CAM-B3LYP def2-SVP def2/J RIJCOSX Grid4 TightSCF
%maxcore 5000
%tddft
    Mode sTDDFT
    Ethresh 5.0
    maxcore 5000
end

%pal
  nprocs 6
  end
* xyz 0 1
   C       -0.24578         1.71822         0.61185
   C       -0.59392         2.34105         1.96660
   C        0.75190         0.56483         0.75142
   C        0.16774         2.75114        -0.42206
   C       -0.77390         2.73032        -1.42621
   C       -1.76424         1.73597        -1.09032
   C       -2.87529         1.37175        -1.80215
   C       -3.22368         1.95367        -3.03490
   N       -3.55120         2.39454        -4.04171
   C       -3.74051         0.36790        -1.31933
   N       -4.44774        -0.44644        -0.93047
   O       -1.45702         1.16139         0.07818
   C       -0.79504         3.51813        -2.58593
   N       -0.77457         4.18138        -3.52201
   C        1.31839         3.56330        -0.33307
   C        2.29227         3.56194         0.65973
   C        3.29622         4.48859         0.41832
   C        3.09243         5.21693        -0.77393
   S        1.67148         4.75507        -1.59056
   C        4.16423         6.12198        -0.93212
   C        5.05309         5.97126         0.15491
   C        4.54597         4.91929         1.02442
   C        5.13688         4.39582         2.13552
   C        6.41682         4.78618         2.58851
   N        7.47098         5.04854         2.95202
   C        4.51081         3.36949         2.87539
   N        3.98070         2.53868         3.46152
   C        6.13417         6.84025         0.10160
   C        6.08632         7.64549        -1.03300
   S        4.67773         7.31980        -2.03416
   C        7.02980         8.62145        -1.40215
   C        8.13322         9.05541        -0.65101
   C        8.92611        10.04086        -1.33303
   N       10.06347        10.49441        -0.80126
   C       10.38385        10.05404         0.39437
   C       11.70036        10.47759         0.94505
   O       12.51910        11.07223         0.28172
   C       11.94332        10.07709         2.34329
   C       11.09824         9.32791         3.05879
   C        9.81003         8.82768         2.54491
   O        9.02651         8.21030         3.22989
   C        9.52490         9.17698         1.12625
   N        8.43753         8.66993         0.59068
   C        8.40289        10.39596        -2.58647
   S        6.97135         9.47181        -2.91353
   C        8.92305        11.35207        -3.47716
   C        9.98296        12.21914        -3.22806
   C       10.23399        13.04529        -4.31470
   C        9.37541        12.79878        -5.40790
   S        8.23842        11.56588        -5.08271
   C        9.73299        13.66117        -6.46385
   C       10.82209        14.45985        -6.05310
   C       11.14334        14.12601        -4.67284
   C       12.03792        14.74968        -3.85779
   C       12.84268        15.82531        -4.29785
   N       13.48688        16.70968        -4.63708
   C       12.17353        14.42413        -2.48863
   N       12.26416        14.20911        -1.36709
   C       11.25600        15.33322        -7.04178
   C       10.50673        15.22634        -8.20916
   S        9.23892        14.00751        -8.05513
   C       10.66720        15.96785        -9.40018
   C       11.69209        16.82841        -9.72261
   C       11.40870        17.38794       -11.02313
   C       12.14569        18.29049       -11.74103
   C       13.36095        18.83681       -11.28800
   N       14.35352        19.31575       -10.97138
   C       11.70188        18.72782       -13.00670
   N       11.34432        19.08436       -14.03599
   O       10.25495        16.89665       -11.49339
   C        9.69159        15.96468       -10.56122
   C        8.30712        16.48348       -10.16370
   C        9.60267        14.61019       -11.27124
   C       12.84880        17.10669        -8.97856
   N       13.79536        17.29560        -8.35953
   H        0.29113         2.72133         2.46500
   H       -1.05452         1.57966         2.59056
   H       -1.30337         3.15547         1.83292
   H        1.64228         0.87073         1.28947
   H        1.03902         0.19358        -0.23038
   H        0.26902        -0.24096         1.29838
   H        2.26891         2.91407         1.51448
   H        6.92607         6.92328         0.82468
   H       12.87849        10.42531         2.76054
   H       11.31904         9.05032         4.08066
   H       10.51963        12.20583        -2.29623
   H       12.07055        16.02580        -6.93367
   H        8.39650        17.44235        -9.65689
   H        7.80505        15.77790        -9.50895
   H        7.71311        16.62065       -11.06314
   H       10.59962        14.22587       -11.47745
   H        9.08334        14.75072       -12.21565
   H        9.05718        13.88943       -10.67070
*
