# ORCA input file
# SCF done       -191.962773577757          0.000701328780
! CAM-B3LYP def2-SVP def2/J RIJCOSX Grid4 TightSCF
%maxcore 5000
%tddft
    Mode sTDDFT
    Ethresh 5.0
    maxcore 5000
end

%pal
  nprocs 6
  end
* xyz 0 1
   C        4.11114        -1.41889        -4.55122
   C        3.45128        -2.60230        -4.76303
   C        3.45751        -3.61105        -3.77666
   N        3.46728        -4.42726        -2.97086
   C        2.72917        -2.93361        -5.92278
   N        2.12447        -3.26042        -6.84278
   C        4.23206        -0.27466        -5.41762
   C        4.99347         0.76381        -4.84248
   C        5.20566         1.94120        -5.55471
   C        4.66524         2.07583        -6.81796
   C        3.91360         1.05103        -7.38333
   C        3.69212        -0.12428        -6.69331
   C        5.47764         0.45925        -3.51886
   S        4.96146        -1.15406        -3.04540
   C        6.21333         1.27974        -2.72202
   C        6.68866         1.03694        -1.41688
   C        7.40193         1.95618        -0.65284
   C        7.72241         1.46017         0.60293
   C        7.25877         0.14335         0.80796
   S        6.42722        -0.47225        -0.54962
   C        7.61647        -0.26652         2.11291
   C        8.30131         0.79692         2.74035
   C        8.40039         1.90806         1.80899
   C        9.00783         3.11117         2.01729
   C        9.64479         3.42831         3.23590
   N       10.16586         3.68439         4.22441
   C        9.04411         4.11318         1.02493
   N        9.07093         4.92579         0.21638
   C        8.67696         0.50221         4.04479
   C        8.29058        -0.78023         4.40998
   S        7.45396        -1.63678         3.12380
   C        8.48704        -1.41770         5.64838
   C        8.13868        -2.73031         5.96517
   C        8.45460        -3.08729         7.31959
   N        8.22056        -4.31193         7.79390
   C        7.67972        -5.17869         6.97049
   C        7.44233        -6.58293         7.51497
   O        7.56338        -6.87996         8.67042
   C        6.83985        -7.30545         6.37967
   C        7.33776        -6.95581         5.14517
   C        6.53267        -5.80476         4.74954
   O        5.48894        -5.61152         4.21253
   C        7.30630        -4.79492         5.62548
   N        7.55954        -3.61151         5.13477
   C        9.03911        -2.04144         8.04231
   S        9.19490        -0.63408         7.03476
   C        9.43467        -2.10151         9.38810
   C        9.96861        -1.08112        10.16656
   C       10.24129        -1.51340        11.45630
   C        9.91663        -2.87392        11.65846
   S        9.26344        -3.61660        10.26314
   C       10.24714        -3.21351        12.98954
   C       10.77514        -2.07536        13.63475
   C       10.77838        -0.96770        12.69238
   C       11.18600         0.31264        12.92233
   C       11.13042         1.30531        11.92082
   N       11.08510         2.10531        11.10100
   C       11.67866         0.72845        14.17839
   N       12.07386         1.06634        15.19967
   C       11.14830        -2.31268        14.95249
   C       10.91557        -3.62816        15.33284
   S       10.21034        -4.57176        14.01817
   C       11.15865        -4.29984        16.55105
   C       11.71903        -3.81683        17.69306
   C       11.95430        -4.57642        18.89777
   C       12.56468        -3.83052        19.92715
   C       12.81728        -2.46332        19.54851
   C       13.39061        -1.45590        20.27996
   C       13.86095        -1.57755        21.59965
   N       14.26447        -1.61227        22.67436
   C       13.55906        -0.16468        19.73443
   N       13.70165         0.88610        19.29811
   S       12.27966        -2.16356        17.91234
   C       12.85967        -4.43130        21.14901
   C       12.54711        -5.76291        21.33767
   C       11.94438        -6.50041        20.32432
   C       11.64630        -5.91800        19.10863
   H        5.78719         2.74245        -5.12668
   H        4.82825         2.98718        -7.37272
   H        3.49834         1.17331        -8.37146
   H        3.10897        -0.91394        -7.13752
   H        6.46790         2.25472        -3.11634
   H        7.65770         2.93557        -1.01461
   H        9.20160         1.16214         4.71226
   H        5.78064        -7.50291         6.49763
   H        8.41310        -6.85023         5.03559
   H       10.13639        -0.08946         9.78615
   H       11.56841        -1.56866        15.60259
   H       10.86335        -5.34079        16.55951
   H       13.32652        -3.86592        21.93840
   H       12.77393        -6.23340        22.28158
   H       11.70694        -7.54029        20.48921
   H       11.17885        -6.50188        18.33154
*
