# ORCA input file
# SCF done       -200.477824239253          0.000558476457
! CAM-B3LYP def2-SVP def2/J RIJCOSX Grid4 TightSCF
%maxcore 5000
%tddft
    Mode sTDDFT
    Ethresh 5.0
    maxcore 5000
end

%pal
  nprocs 6
  end
* xyz 0 1
   C       -1.54177         0.35325        -1.47941
   C       -2.45156        -0.66788        -1.42642
   C       -2.01764        -1.99820        -1.33201
   C       -0.68105        -2.28896        -1.29205
   C        0.28265        -1.26213        -1.34787
   C        1.66557        -1.55916        -1.32187
   C        2.57469        -0.53863        -1.38611
   C        2.12515         0.81144        -1.45726
   C        0.79856         1.12751        -1.49024
   C       -0.15895         0.08857        -1.44113
   C        3.29519         1.70803        -1.47043
   O        3.30676         2.91581        -1.56787
   C        4.47575         0.82269        -1.28799
   C        4.03701        -0.54425        -1.42198
   C        4.79563        -1.63687        -1.76984
   C        6.17178        -1.61193        -2.06154
   N        7.28547        -1.67402        -2.33789
   C        4.27133        -2.93178        -1.95204
   N        3.91830        -4.01650        -2.08767
   C        5.67878         1.40492        -0.99152
   C        6.84034         0.83855        -0.44354
   C        7.01791        -0.35575         0.25230
   C        8.32814        -0.60275         0.60826
   C        9.19053         0.41463         0.18393
   S        8.35943         1.70053        -0.59183
   C       10.57280         0.22433         0.37704
   C       10.98458        -0.99222         0.93135
  Ge        9.39797        -2.09647         1.31753
   C        9.13003        -2.43653         3.25586
   C        9.22755        -3.69748         0.16615
   C       12.36182        -1.08484         1.01186
   C       13.02635         0.04293         0.53708
   S       11.89537         1.25585        -0.01428
   C       14.42390         0.27452         0.43192
   C       15.42314        -0.69231         0.72521
   C       16.81327        -0.41142         0.50679
   N       17.73513        -1.35649         0.75974
   C       17.35805        -2.52020         1.20850
   C       15.99616        -2.79067         1.43637
   N       15.06954        -1.90327         1.19927
   C       17.29422         0.83056         0.02125
   C       16.30743         1.80994        -0.22068
   C       14.90687         1.52067        -0.02650
   N       14.14101         2.56749        -0.33500
   S       15.07032         3.78400        -0.81394
   N       16.49326         3.05620        -0.66110
   C       18.67482         1.02764        -0.23174
   C       19.29675         2.19660        -0.66295
   C       20.65501         2.05123        -0.87774
   C       21.08499         0.74542        -0.61536
   S       19.80937        -0.28341        -0.06709
   C       22.43918         0.44812        -0.86262
   C       23.25920         1.47929        -1.34575
  Ge       22.19212         3.13148        -1.47667
   C       22.03168         3.82843        -3.32572
   C       22.74642         4.50661        -0.15875
   C       24.54389         1.05260        -1.61129
   C       24.74910        -0.30187        -1.34891
   S       23.27665        -1.04046        -0.72121
   C       25.85752        -1.14945        -1.49092
   C       27.09271        -0.95382        -2.06044
   C       28.10556        -1.99217        -2.12661
   C       28.13062        -3.17628        -1.43183
   C       29.15808        -4.13495        -1.54751
   N       29.95375        -4.96203        -1.59564
   C       27.18383        -3.60680        -0.47958
   N       26.48188        -4.03078         0.32575
   C       29.15777        -1.53758        -3.02978
   C       28.85855        -0.20561        -3.42743
   C       29.66825         0.49762        -4.27080
   C       30.83634        -0.11724        -4.77515
   C       31.70877         0.55455        -5.65341
   C       32.83019        -0.06456        -6.13520
   C       33.12804        -1.38248        -5.75885
   C       32.30144        -2.06227        -4.90613
   C       31.13854        -1.45482        -4.39092
   C       30.28256        -2.15448        -3.50861
   C       27.59165         0.22210        -2.80589
   O       27.09420         1.32623        -2.91753
   H       -1.86991         1.37995        -1.55188
   H       -3.50993        -0.45586        -1.45693
   H       -2.74800        -2.79256        -1.29247
   H       -0.34191        -3.31230        -1.22350
   H        1.96904        -2.59132        -1.24315
   H        0.48133         2.15768        -1.55536
   H        5.70834         2.47668        -1.16720
   H        6.19702        -1.00076         0.51453
   H        9.22736        -1.51388         3.81930
   H        9.87106        -3.14378         3.61504
   H        8.14247        -2.85216         3.43133
   H        9.19217        -3.39312        -0.87540
   H        8.31234        -4.23222         0.40129
   H       10.06968        -4.36656         0.31300
   H       12.89861        -1.93370         1.39287
   H       18.13318        -3.24889         1.39777
   H       15.66405        -3.74560         1.82060
   H       18.74456         3.10658        -0.81382
   H       21.70135         3.04413        -3.99918
   H       22.99471         4.19669        -3.66540
   H       21.31589         4.64395        -3.36024
   H       22.81500         4.07219         0.83373
   H       22.02591         5.31838        -0.13568
   H       23.71673         4.91101        -0.43016
   H       25.32625         1.68152        -1.99609
   H       25.67299        -2.14779        -1.11085
   H       29.41870         1.50974        -4.55336
   H       31.47374         1.56938        -5.94008
   H       33.49322         0.45754        -6.80902
   H       34.01647        -1.85698        -6.14815
   H       32.52713        -3.07701        -4.61239
   H       30.53913        -3.16694        -3.24107
*
