# ORCA input file
# SCF done       -200.837471055209          0.000276932070
! CAM-B3LYP def2-SVP def2/J RIJCOSX Grid4 TightSCF
%maxcore 5000
%tddft
    Mode sTDDFT
    Ethresh 5.0
    maxcore 5000
end

%pal
  nprocs 6
  end
* xyz 0 1
   C        1.30750         6.55430         0.53153
   C        0.35756         6.46671         1.51282
   C        0.29509         5.33495         2.33944
   C        1.18357         4.30731         2.17490
   C        2.17413         4.36399         1.17369
   C        3.09005         3.30162         0.99531
   C        4.03663         3.38993         0.01081
   C        4.10646         4.55098        -0.81385
   C        3.23095         5.58825        -0.66743
   C        2.23720         5.51429         0.33454
   C        5.23483         4.41501        -1.74896
   O        5.57306         5.16569        -2.63476
   C        5.93810         3.16324        -1.33411
   C        5.07595         2.45595        -0.40995
   C        5.06335         1.10684        -0.16666
   C        5.95366         0.19290        -0.76141
   N        6.64771        -0.58579        -1.24180
   C        4.09607         0.46359         0.63421
   N        3.33117        -0.10992         1.26855
   C        7.20669         2.95639        -1.77968
   C        8.20367         2.10273        -1.25550
   C        8.28848         1.53261         0.00625
   C        9.44975         0.78810         0.16905
   C       10.26696         0.79035        -0.97697
   S        9.61037         1.72123        -2.23987
   C       11.41717         0.00527        -0.70311
   C       11.32500        -0.49155         0.60730
   C       10.07588        -0.03368         1.19298
   C        9.56511        -0.32784         2.42240
   C       10.23453        -1.15761         3.34696
   N       10.77245        -1.82962         4.10379
   C        8.31889         0.18651         2.84024
   N        7.30807         0.61726         3.16806
   C       12.43511        -1.25404         0.97968
   C       13.36642        -1.34423        -0.03438
   S       12.85289        -0.47992        -1.47888
   C       14.64966        -1.99855        -0.03675
   C       15.33906        -2.22200        -1.23368
   C       16.58289        -2.80770        -1.24937
   F       17.17343        -2.96262        -2.44684
   C       17.24459        -3.20982        -0.07884
   C       16.55231        -2.99159         1.11765
   C       15.30528        -2.41341         1.13270
   F       14.72994        -2.22512         2.33298
   C       18.56886        -3.77684        -0.07033
   C       19.31400        -4.27257        -1.12105
   C       20.57995        -4.70068        -0.71262
   C       20.79716        -4.52406         0.66316
   S       19.44573        -3.85166         1.45307
   C       22.11119        -4.95180         0.97679
   C       22.73038        -5.39848        -0.21005
   C       21.77720        -5.27922        -1.30439
   C       21.95518        -5.65573        -2.60176
   C       23.14305        -6.25763        -3.07353
   N       24.08360        -6.76654        -3.48518
   C       20.94447        -5.50084        -3.57595
   N       20.13073        -5.38396        -4.37475
   C       24.04691        -5.79924        -0.02048
   C       24.44799        -5.66788         1.30272
   S       23.13936        -5.05340         2.32384
   C       25.65541        -5.96105         1.97091
   C       26.89713        -6.25844         1.48446
   C       28.03348        -6.60319         2.32575
   C       27.99688        -6.96321         3.64826
   C       29.13883        -7.30290         4.40455
   N       30.02384        -7.58272         5.08006
   C       26.83557        -7.08537         4.43999
   N       25.94119        -7.22716         5.14701
   C       29.22982        -6.57998         1.49417
   C       28.84031        -6.31213         0.15185
   C       29.74791        -6.24178        -0.86542
   C       31.11752        -6.43575        -0.57905
   C       32.10087        -6.37752        -1.58598
   C       33.42285        -6.56205        -1.28359
   C       33.81891        -6.81334         0.03860
   C       32.88850        -6.87749         1.03992
   C       31.51829        -6.69329         0.76401
   C       30.55386        -6.76319         1.79535
   C       27.38129        -6.13153         0.08472
   O       26.73875        -5.88352        -0.91335
   H        1.36054         7.42341        -0.10776
   H       -0.35034         7.26902         1.65759
   H       -0.46140         5.28126         3.10788
   H        1.13799         3.43273         2.80691
   H        3.03014         2.44848         1.65288
   H        3.29624         6.45625        -1.30653
   H        7.50795         3.59247        -2.60688
   H        7.55650         1.69997         0.77495
   H       12.54948        -1.72121         1.93993
   H       14.89903        -1.93146        -2.17530
   H       16.99502        -3.27482         2.06026
   H       18.95729        -4.32573        -2.13253
   H       24.70501        -6.15679        -0.79134
   H       25.56264        -5.91256         3.05004
   H       29.42297        -6.04142        -1.87557
   H       31.78963        -6.18359        -2.60197
   H       34.17047        -6.51516        -2.06119
   H       34.86591        -6.95645         0.26004
   H       33.18842        -7.07247         2.05911
   H       30.89092        -6.95488         2.80152
*
