# ORCA input file
# SCF done       -226.335485228937          0.000847513267
! CAM-B3LYP def2-SVP def2/J RIJCOSX Grid4 TightSCF
%maxcore 5000
%tddft
    Mode sTDDFT
    Ethresh 5.0
    maxcore 5000
end

%pal
  nprocs 6
  end
* xyz 0 1
   C      -13.12131        -2.66745         5.31555
   C      -14.14484        -3.47148         5.73177
   F      -15.17581        -2.95233         6.41078
   C      -14.13018        -4.85322         5.45347
   F      -15.14686        -5.61738         5.87414
   C      -13.09173        -5.41179         4.76235
   C      -12.02148        -4.60982         4.32070
   C      -12.03572        -3.21245         4.60043
   C      -10.97378        -2.38734         4.16574
   C       -9.93107        -2.94214         3.47042
   C       -9.92195        -4.33867         3.20123
   C      -10.93152        -5.16092         3.61079
   C       -8.68988        -4.69482         2.46732
   O       -8.33244        -5.80994         2.16633
   C       -7.95027        -3.41583         2.29045
   C       -8.72539        -2.35050         2.89872
   C       -8.42846        -1.01279         2.87768
   C       -7.30246        -0.43343         2.25373
   N       -6.42823         0.12694         1.76447
   C       -9.23659        -0.01591         3.46465
   N       -9.84849         0.83930         3.92455
   C       -6.68176        -3.30515         1.80201
   C       -5.95746        -4.26193         1.05151
   C       -6.38040        -5.24644         0.12738
   C       -5.20659        -5.82729        -0.40480
   C       -4.12901        -5.17069         0.26812
   N       -4.59296        -4.23115         1.09060
   O       -2.85266        -5.45193         0.14457
   C       -1.96247        -4.63552         0.89050
   C       -5.63430        -6.81060        -1.33325
   N       -6.98812        -6.85449        -1.36938
   C       -7.45768        -5.92988        -0.52927
   O       -8.72984        -5.68961        -0.36989
   C       -9.61890        -6.56610        -1.04785
   C       -4.82702        -7.65127        -2.15275
   C       -5.23665        -8.94659        -2.54459
   C       -4.40656        -9.78119        -3.36349
   N       -4.88978       -10.95680        -3.81665
   C       -6.05627       -11.34798        -3.42728
   C       -6.82072       -10.57787        -2.50518
   N       -6.41930        -9.42088        -2.10059
   F       -7.97468       -11.03871        -2.02772
   F       -6.52220       -12.49662        -3.90554
   C       -3.11400        -9.38370        -3.77721
   C       -2.71817        -8.07588        -3.42290
   C       -3.57165        -7.22071        -2.62717
   N       -3.03712        -6.01180        -2.45652
   S       -1.60124        -5.97688        -3.16302
   N       -1.57745        -7.46731        -3.74541
   C       -2.26715       -10.23381        -4.54275
   C       -2.20251       -11.64998        -4.57657
   C       -1.17857       -11.97038        -5.49571
   C       -0.68389       -10.70971        -5.96253
   N       -1.33000        -9.70437        -5.37700
   O        0.27788       -10.55226        -6.83676
   C        0.61283        -9.21189        -7.16752
   C       -1.07120       -13.37755        -5.52019
   N       -1.95696       -13.91547        -4.63133
   C       -2.62886       -12.91591        -4.05692
   O       -3.51873       -13.09937        -3.11381
   C       -3.86436       -14.44351        -2.81505
   C       -0.13843       -14.13291        -6.26582
   C       -0.00147       -15.48740        -6.30460
   C        1.28032       -16.09202        -6.76651
   O        2.15541       -15.54768        -7.39753
   C        1.26903       -17.46731        -6.22703
   C        2.25566       -18.41028        -6.26933
   C        2.03513       -19.66363        -5.65628
   C        0.79227       -19.91418        -5.00469
   C        0.58236       -21.16467        -4.38918
   C        1.55780       -22.12121        -4.42149
   C        2.78542       -21.87293        -5.06803
   C        3.02038       -20.67029        -5.67288
   F        3.72376       -22.82932        -5.08354
   F        1.35573       -23.30881        -3.83595
   C       -0.21430       -18.92159        -4.98395
   C        0.01808       -17.71658        -5.59132
   C       -0.83412       -16.54309        -5.76896
   C       -2.19560       -16.51513        -5.65484
   C       -3.00892       -15.48757        -6.18910
   N       -3.74385       -14.79644        -6.73733
   C       -2.95592       -17.56376        -5.10105
   N       -3.61096       -18.37181        -4.61485
   H      -13.14831        -1.61176         5.53606
   H      -13.09522        -6.47110         4.55862
   H      -11.01105        -1.33582         4.39957
   H      -10.89830        -6.21807         3.39539
   H       -6.11473        -2.40506         2.00820
   H       -2.00283        -3.60583         0.53101
   H       -0.96907        -5.05356         0.74267
   H       -2.23402        -4.64554         1.94754
   H      -10.62369        -6.21946        -0.81653
   H       -9.47192        -7.58997        -0.70118
   H       -9.43285        -6.53395        -2.12274
   H        1.55718        -9.25781        -7.70511
   H        0.69956        -8.60966        -6.26233
   H       -0.16421        -8.78008        -7.80089
   H       -4.43540       -14.87345        -3.64064
   H       -4.47608       -14.40920        -1.91604
   H       -2.96773       -15.04331        -2.64927
   H        0.61778       -13.55822        -6.78955
   H        3.19241       -18.20245        -6.76374
   H       -0.35250       -21.37283        -3.89269
   H        3.96501       -20.49543        -6.16359
   H       -1.14422       -19.13569        -4.48150
*
