# ORCA input file
# SCF done       -208.929380017312          0.000862771664
! CAM-B3LYP def2-SVP def2/J RIJCOSX Grid4 TightSCF
%maxcore 5000
%tddft
    Mode sTDDFT
    Ethresh 5.0
    maxcore 5000
end

%pal
  nprocs 6
  end
* xyz 0 1
   C        2.71375         2.99132        -4.90103
   C        3.65436         3.71462        -4.21237
   C        4.62977         4.51880        -4.83106
   N        5.42923         5.20039        -5.29484
   C        3.80478         3.62015        -2.81427
   N        3.98537         3.50942        -1.68590
   C        2.70634         2.76018        -6.34248
   C        1.95646         1.57529        -6.60059
   C        1.79998         1.08762        -7.86508
   C        2.38383         1.78290        -8.94866
   C        3.12297         2.97472        -8.69815
   C        3.27916         3.45053        -7.37484
   C        3.69070         3.66204        -9.78978
   C        3.53832         3.19628       -11.06749
   C        2.81071         2.02261       -11.31294
   C        2.24685         1.33058       -10.27566
   C        1.40872         1.05948        -5.33135
   O        0.76862         0.04737        -5.15074
   C        1.74348         2.09619        -4.31857
   C        1.01717         2.13438        -3.16340
   C        0.73159         3.19337        -2.28253
   C       -0.08912         3.07772        -1.16118
   C       -0.37427         4.28114        -0.54545
   C        0.23316         5.35828        -1.19850
   S        1.15527         4.86978        -2.56199
   C       -0.03886         6.65736        -0.71709
   C       -0.94888         6.77262         0.33595
  Ge       -1.47338         4.97254         0.93933
   C       -3.40667         4.58105         0.74052
   C       -0.73876         4.52032         2.72463
   C       -1.21027         8.09569         0.65469
   C       -0.49166         8.99838        -0.11351
   S        0.54970         8.18573        -1.25069
   C       -0.53053        10.42486        -0.07151
   C       -1.66580        11.15286         0.34554
   C       -1.69464        12.59244         0.34348
   N       -2.81657        13.23026         0.74541
   C       -3.84640        12.53938         1.10534
   C       -3.82724        11.12217         1.08100
   N       -2.77298        10.47151         0.71702
   F       -4.89907        10.41184         1.43815
   F       -4.93289        13.20755         1.49766
   C       -0.57165        13.36599        -0.02372
   C        0.57509        12.63759        -0.40108
   C        0.57965        11.19812        -0.46822
   N        1.75261        10.72804        -0.89596
   S        2.74011        11.95945        -1.18089
   N        1.74492        13.15257        -0.78328
   C       -0.57378        14.79320        -0.00954
   C       -1.65067        15.64898        -0.18527
   C       -1.30880        16.98782        -0.09022
   C        0.04688        17.16581         0.19875
   S        0.90519        15.67334         0.26536
   C        0.50172        18.48331         0.43001
   C       -0.44079        19.51484         0.28011
  Ge       -2.17790        18.74778        -0.24616
   C       -2.68764        19.17648        -2.11498
   C       -3.63008        19.05325         1.06765
   C        0.10098        20.73880         0.59403
   C        1.43633        20.68021         1.02058
   S        2.03115        19.03352         0.98270
   C        2.12261        21.82345         1.44791
   C        3.35692        21.95581         2.03454
   C        3.93476        23.19455         2.51376
   C        3.46707        24.46838         2.30529
   C        4.09090        25.63049         2.80339
   N        4.54004        26.61958         3.17616
   C        2.32180        24.81301         1.55957
   N        1.40701        25.17466         0.96502
   C        5.14415        22.85532         3.25854
   C        5.34467        21.44742         3.17967
   C        4.25822        20.85123         2.38513
   O        4.13629        19.67421         2.09172
   C        6.39557        20.83093         3.79341
   C        7.31057        21.60971         4.53810
   C        7.11619        23.01787         4.62528
   C        6.02046        23.62856         3.97143
   C        8.02960        23.78411         5.37678
   C        9.08494        23.18959         6.01380
   C        9.27552        21.80286         5.92728
   C        8.40756        21.02984         5.20425
   H        1.23495         0.18398        -8.03954
   H        3.83655         4.35990        -7.21069
   H        4.25244         4.56411        -9.59599
   H        3.97816         3.73014       -11.89667
   H        2.69879         1.66962       -12.32731
   H        1.68508         0.42598       -10.45802
   H        0.45514         1.22567        -2.96347
   H       -0.46093         2.12489        -0.82587
   H       -3.74316         4.83908        -0.25859
   H       -3.97677         5.16040         1.46023
   H       -3.59904         3.52671         0.91441
   H        0.32249         4.74589         2.75996
   H       -0.87795         3.46377         2.93237
   H       -1.24496         5.09458         3.49457
   H       -1.89188         8.41126         1.42217
   H       -2.64288        15.28927        -0.38394
   H       -1.85694        18.97946        -2.78545
   H       -2.96186        20.22362        -2.19820
   H       -3.53527        18.57123        -2.42126
   H       -3.28599        18.82236         2.07076
   H       -4.47889        18.41726         0.83573
   H       -3.95428        20.08896         1.03761
   H       -0.43606        21.67090         0.54589
   H        1.54230        22.73084         1.32876
   H        6.52473        19.76136         3.71817
   H        5.89994        24.69640         4.06082
   H        7.87839        24.85180         5.44024
   H        9.77834        23.78534         6.58840
   H       10.11290        21.34966         6.43661
   H        8.54915        19.96113         5.13444
*
