# ORCA input file
# SCF done       -127.494204438006          0.000667439299
! CAM-B3LYP def2-SVP def2/J RIJCOSX Grid4 TightSCF
%maxcore 5000
%tddft
    Mode sTDDFT
    Ethresh 5.0
    maxcore 5000
end

%pal
  nprocs 6
  end
* xyz 0 1
   C       -5.18277        -0.88151        -0.93134
   C       -4.26675        -2.08881        -0.84325
   O       -4.44046        -3.26065        -0.74037
   C       -3.94727        -0.01241        -1.07924
   O       -3.76056         1.15042        -1.24240
   C       -2.99913        -1.22285        -0.97047
   C       -2.13204        -1.48621        -2.14257
   S       -2.82261        -1.60834        -3.73063
   C       -1.26470        -1.88206        -4.45058
   C       -0.27399        -1.87630        -3.47059
   C       -0.77946        -1.65098        -2.16858
   C        1.09553        -2.07730        -3.69747
   N        2.22404        -2.24064        -3.83509
   C       -1.18813        -2.06105        -5.85536
   C       -0.03941        -2.23183        -6.55921
   C       -0.02897        -2.39091        -7.96683
   N        1.12338        -2.55279        -8.70293
   C        2.46782        -2.65461        -8.18710
   C        2.74875        -4.03059        -7.58948
   C        0.85928        -2.66105       -10.07655
   O        1.72505        -2.80110       -10.92091
   C       -0.57780        -2.55309       -10.17563
   C       -1.09467        -2.39118        -8.86418
   C       -2.53120        -2.28164        -8.96413
   O       -3.40080        -2.13785        -8.12466
   N       -2.79444        -2.39079       -10.33911
   C       -4.13725        -2.27955       -10.85348
   C       -4.41899        -0.88739       -11.41391
   C       -1.64042        -2.54328       -11.07571
   C       -1.61528        -2.66079       -12.48683
   C       -0.46040        -2.77849       -13.18929
   C       -0.39126        -2.87337       -14.60081
   S       -1.80717        -2.86112       -15.62500
   C       -0.85276        -2.98624       -17.06472
   C        0.50265        -3.03453       -16.74704
   C        0.75096        -2.97182       -15.36312
   C        1.55112        -3.12973       -17.67803
   N        2.43668        -3.20953       -18.40368
   C       -1.52060        -3.02151       -18.32910
   C       -0.92193        -3.11469       -19.52354
   C       -1.65628        -3.14302       -20.81307
   C       -1.19065        -4.24388       -21.78311
   O       -1.29789        -5.42842       -21.77661
   C       -1.13559        -2.13715       -21.85697
   O       -1.18248        -0.95112       -21.93266
   C       -0.57920        -3.23774       -22.74116
   H       -5.79379        -0.68696        -0.05020
   H       -5.84340        -0.87791        -1.79899
   H       -2.39430        -1.21138        -0.06005
   H       -0.15139        -1.61500        -1.29593
   H       -2.13332        -2.05016        -6.38332
   H        0.91064        -2.23822        -6.04795
   H        2.63753        -1.87050        -7.44418
   H        3.12974        -2.48264        -9.04057
   H        2.08695        -4.23533        -6.75115
   H        3.77522        -4.07186        -7.23705
   H        2.60608        -4.80121        -8.34333
   H       -4.80130        -2.47408       -10.00642
   H       -4.30302        -3.04725       -11.61465
   H       -4.28702        -0.14140       -10.63410
   H       -5.44243        -0.83582       -11.77491
   H       -3.74488        -0.65248       -12.23467
   H       -2.55859        -2.64875       -13.01664
   H        0.48784        -2.79457       -12.66691
   H        1.73771        -2.99571       -14.93603
   H       -2.60061        -2.96530       -18.27377
   H        0.15396        -3.17082       -19.59660
   H       -2.73541        -3.10732       -20.64852
   H        0.51104        -3.26703       -22.76776
   H       -0.93596        -3.26406       -23.77046
*
