# ORCA input file
# SCF done       -177.839528432720          0.000510829102
! CAM-B3LYP def2-SVP def2/J RIJCOSX Grid4 TightSCF
%maxcore 5000
%tddft
    Mode sTDDFT
    Ethresh 5.0
    maxcore 5000
end

%pal
  nprocs 6
  end
* xyz 0 1
   C       -4.81074        -0.67597        -3.72085
   C       -4.91526        -0.56842        -2.35948
   C       -4.27445        -1.44077        -1.45714
   N       -3.74334        -2.11231        -0.69276
   C       -5.59756         0.47783        -1.70368
   N       -6.14935         1.29947        -1.12287
   C       -5.22933         0.34494        -4.68030
   C       -4.53428         0.14542        -5.88829
   C       -4.70207         1.00646        -6.95670
   C       -5.57886         2.06936        -6.81390
   C       -6.28861         2.27312        -5.63095
   C       -6.11173         1.40312        -4.55577
   C       -7.25333         3.40952        -5.51900
   C       -3.69246        -1.05598        -5.78172
   O       -2.91915        -1.51026        -6.59180
   C       -4.03272        -1.65418        -4.45223
   C       -3.65623        -2.93476        -4.20393
   C       -4.11907        -3.84837        -3.22300
   S       -3.15499        -5.24669        -2.83843
   C       -4.33081        -5.83515        -1.71383
   C       -5.44279        -4.98062        -1.68149
   C       -5.31105        -3.87038        -2.52477
   C       -6.60203        -5.18884        -0.91627
   N       -7.57339        -5.33013        -0.32098
   C       -4.06266        -7.03178        -1.00927
   C       -4.85559        -7.57270        -0.04448
   C       -4.52900        -8.78690         0.60422
   N       -5.30473        -9.36400         1.58003
   C       -6.57274        -8.88041         2.07279
   C       -7.71500        -9.18173         1.10625
   C       -4.74912       -10.57047         2.05473
   O       -5.25620       -11.25450         2.91615
   C       -3.52660       -10.71507         1.29274
   C       -3.41785        -9.61356         0.41607
   C       -2.19629        -9.77741        -0.33520
   O       -1.67987        -9.10375        -1.20651
   N       -1.64033       -10.98120         0.13990
   C       -0.36555       -11.41652        -0.37693
   C        0.77988       -11.08585         0.57760
   C       -2.42518       -11.55336         1.11959
   C       -2.25569       -12.75786         1.84538
   C       -1.25170       -13.67032         1.79129
   C       -1.20925       -14.85599         2.56725
   S       -2.45710       -15.31707         3.69474
   C       -1.60844       -16.77154         4.11941
   C       -0.40991       -16.87066         3.40136
   C       -0.19381       -15.79519         2.53478
   C        0.48104       -17.94945         3.54046
   N        1.21585       -18.82369         3.64264
   C       -2.08325       -17.70897         5.06211
   C       -3.25631       -17.60263         5.74317
   C       -3.65732       -18.58744         6.67380
   C       -4.81858       -18.56028         7.39136
   C       -5.26854       -19.54294         8.36070
   C       -4.61214       -20.68046         8.75092
   C       -3.35702       -21.11529         8.27402
   N       -2.34311       -21.54053         7.94250
   C       -5.10672       -21.59570         9.70496
   N       -5.44619       -22.38132        10.47019
   C       -6.56734       -19.10104         8.86465
   C       -6.91386       -17.89121         8.23849
   C       -5.85357       -17.49282         7.29853
   O       -5.83623       -16.50307         6.59820
   C       -8.10161       -17.24656         8.53151
   C       -8.94946       -17.82139         9.46256
   C       -8.62434       -19.02152        10.09588
   C       -7.42631       -19.66458         9.79436
   C       -9.56544       -19.61038        11.09790
   H       -4.15458         0.84576        -7.87252
   H       -5.72045         2.75736        -7.63441
   H       -6.66983         1.56190        -3.64644
   H       -6.91359         4.26616        -6.09607
   H       -7.38586         3.70638        -4.48188
   H       -8.22513         3.10646        -5.91040
   H       -2.93290        -3.33475        -4.90911
   H       -6.08835        -3.13610        -2.64687
   H       -3.14330        -7.53734        -1.27775
   H       -5.76530        -7.07356         0.25121
   H       -6.50610        -7.80680         2.26815
   H       -6.74483        -9.40293         3.01799
   H       -7.56412        -8.68193         0.15225
   H       -8.65219        -8.83549         1.53197
   H       -7.78421       -10.25306         0.93339
   H       -0.22308       -10.86517        -1.31171
   H       -0.40579       -12.48330        -0.61025
   H        0.85515       -10.00820         0.69907
   H        1.71777       -11.45438         0.17097
   H        0.62039       -11.53024         1.55758
   H       -3.07299       -12.94262         2.53372
   H       -0.40304       -13.54199         1.13777
   H        0.67469       -15.70630         1.90606
   H       -1.44252       -18.56753         5.23225
   H       -3.90510       -16.75344         5.57947
   H       -2.97560       -19.41708         6.81228
   H       -8.34780       -16.31854         8.03892
   H       -9.88302       -17.33683         9.70890
   H       -7.18593       -20.59158        10.28912
   H      -10.53819       -19.79057        10.64231
   H       -9.71267       -18.91957        11.92718
   H       -9.18323       -20.54894        11.48955
*
