# ORCA input file
# SCF done       -226.707829660852          0.000997000046
! CAM-B3LYP def2-SVP def2/J RIJCOSX Grid4 TightSCF
%maxcore 5000
%tddft
    Mode sTDDFT
    Ethresh 5.0
    maxcore 5000
end

%pal
  nprocs 6
  end
* xyz 0 1
   C        0.05043         1.93694         3.70814
   C        0.37091         3.11426         4.32916
   C        0.09172         3.38560         5.68650
   N       -0.10729         3.65516         6.78326
   C        1.09872         4.15396         3.71768
   N        1.71732         5.00894         3.26527
   C       -0.50823         0.76031         4.35811
   C       -0.26828        -0.37756         3.53105
   C       -0.65760        -1.63116         3.90856
   C       -1.32513        -1.80318         5.14197
   C       -1.58736        -0.66599         5.96137
   C       -1.16689         0.61913         5.55010
   C       -2.26468        -0.85053         7.18374
   C       -2.66076        -2.09828         7.58243
   C       -2.39999        -3.21723         6.77715
   C       -1.74655        -3.07310         5.58311
   C        0.40243         0.04980         2.29471
   O        0.81895        -0.62606         1.38500
   C        0.41344         1.54822         2.35792
   C        0.65354         2.25296         1.22795
   C        0.40645         3.63286         0.96676
   S        1.53643         4.52617         0.00044
   C        0.65291         6.00334         0.22280
   C       -0.53151         5.76656         0.91540
   C       -0.65439         4.43797         1.35231
   S       -1.99056         3.81189         2.30547
   C       -2.77017         5.25504         3.03205
   O       -3.29882         5.12083         4.09186
   C       -2.93733         6.50951         2.20526
   O       -3.91191         7.18953         2.36705
   S       -1.79348         6.97491         0.95229
   C        1.17226         7.28902        -0.08475
   N        2.02883         7.60048        -1.10618
   C        2.43897         6.74021        -2.18953
   C        1.27645         6.39650        -3.11466
   C        2.41812         8.96142        -1.06352
   O        3.16737         9.46999        -1.86758
   C        1.74179         9.48105         0.10214
   C        0.98082         8.44121         0.67728
   C        0.41401         8.94760         1.91065
   O       -0.30988         8.42768         2.73402
   N        0.87171        10.27619         1.99525
   C        0.46543        11.09968         3.11271
   C        1.46895        11.02364         4.26088
   C        1.67373        10.60322         0.93183
   C        2.35517        11.80887         0.62597
   C        2.57742        12.89082         1.41554
   C        3.19506        14.08040         0.93558
   C        2.74732        15.36002         1.23078
   N        1.70894        15.72364         2.10672
   O        1.48485        16.91206         2.24507
   O        1.09162        14.84049         2.68554
   C        3.41336        16.31777         0.38456
   C        4.32266        15.66163        -0.36662
   C        4.33718        14.26272         0.01563
   C        5.34770        13.36556        -0.23988
   C        5.33293        11.93547        -0.04785
   C        6.30479        11.38041        -0.81010
   C        7.06584        12.43203        -1.43225
   N        8.20229        12.16827        -2.22755
   O        8.78681        13.10680        -2.73931
   O        8.52320        11.00260        -2.36304
   C        6.58254        13.66174        -1.01136
   C        7.25736        14.90391        -1.11598
   C        7.15414        15.87667        -0.16618
   C        7.81249        17.12461        -0.25919
   C        7.58287        18.15389         0.60907
   C        8.16949        19.48273         0.57009
   C        9.21110        19.89465        -0.21944
   C        9.75274        21.19794        -0.19504
   N       10.23691        22.23802        -0.22643
   C        9.90655        19.08971        -1.14691
   N       10.52471        18.50221        -1.91521
   C        7.47416        20.30580         1.55256
   C        6.52463        19.49423         2.23793
   C        6.57922        18.12351         1.71560
   O        5.93108        17.17374         2.10500
   C        5.71002        19.99805         3.21209
   C        5.81029        21.36459         3.55296
   C        6.75934        22.18394         2.87438
   C        7.58809        21.63389         1.86960
   C        6.84998        23.54708         3.22180
   C        6.04266        24.07704         4.19155
   C        5.10790        23.26992         4.85748
   C        4.99401        21.94222         4.54532
   H       -0.46080        -2.48174         3.27307
   H       -1.38946         1.46560         6.18075
   H       -2.46071         0.01366         7.80093
   H       -3.17724        -2.22995         8.52121
   H       -2.72026        -4.19402         7.10714
   H       -1.54406        -3.93109         4.95905
   H        1.07516         1.68324         0.40455
   H        2.89430         5.83048        -1.78737
   H        3.19991         7.30263        -2.73816
   H        0.49980         5.85358        -2.58103
   H        1.63276         5.77775        -3.93270
   H        0.84468         7.30468        -3.52787
   H       -0.49361        10.69856         3.45322
   H        0.31455        12.12719         2.77706
   H        1.50949        10.00910         4.64986
   H        1.15751        11.69125         5.05872
   H        2.46754        11.30784         3.93580
   H        2.71861        11.82708        -0.39495
   H        2.16680        12.94912         2.41153
   H        3.16930        17.36228         0.37034
   H        4.93893        16.08932        -1.13094
   H        4.63133        11.39528         0.55205
   H        6.51845        10.33714        -0.94212
   H        7.95994        15.01699        -1.93248
   H        6.54263        15.70813         0.70785
   H        8.48813        17.26639        -1.09320
   H        4.99441        19.36130         3.71067
   H        8.28962        22.28337         1.37084
   H        7.57052        24.16494         2.70640
   H        6.11954        25.12237         4.45022
   H        4.47822        23.70561         5.61852
   H        4.27567        21.31569         5.05299
*
