# ORCA input file
# SCF done       -227.222970295800          0.000649559395
! CAM-B3LYP def2-SVP def2/J RIJCOSX Grid4 TightSCF
%maxcore 5000
%tddft
    Mode sTDDFT
    Ethresh 5.0
    maxcore 5000
end

%pal
  nprocs 6
  end
* xyz 0 1
   C      -10.50038         0.10530        -5.01512
   C      -10.83175        -0.16051        -6.31394
   F      -11.58732         0.69950        -7.00488
   C      -10.38384        -1.34166        -6.94253
   F      -10.72412        -1.57336        -8.21488
   C       -9.61142        -2.24095        -6.26232
   C       -9.25442        -1.99642        -4.92154
   C       -9.70607        -0.80255        -4.28522
   C       -9.36331        -0.53716        -2.94116
   C       -8.59785        -1.44051        -2.24821
   C       -8.15192        -2.63034        -2.89168
   C       -8.46096        -2.90889        -4.19366
   C       -7.35388        -3.43275        -1.95369
   O       -6.74978        -4.45420        -2.18706
   C       -7.36303        -2.66652        -0.66420
   C       -8.11704        -1.43295        -0.87252
   C       -8.37148        -0.47183         0.06288
   C       -9.13005         0.69475        -0.18539
   N       -9.73220         1.66056        -0.32693
   C       -7.92829        -0.50531         1.40466
   N       -7.61174        -0.47004         2.50658
   C       -6.69095        -3.05676         0.43487
   C       -6.07810        -4.37520         0.55563
   C       -4.73548        -4.51092         0.91010
   F       -4.00871        -3.40921         1.11472
   C       -4.13919        -5.75900         0.99733
   F       -2.83819        -5.85917         1.28201
   C       -4.87045        -6.92231         0.75582
   C       -6.22262        -6.78859         0.43701
   C       -6.81500        -5.54203         0.33751
   F       -8.11983        -5.45366         0.06255
   F       -6.95389        -7.89369         0.23510
   C       -4.25185        -8.23828         0.86347
   C       -3.65970        -8.77165         1.97750
   N       -3.53355        -8.16067         3.25251
   O       -2.80689        -8.70529         4.05587
   O       -4.17916        -7.15171         3.46321
   C       -3.22016       -10.12278         1.69621
   C       -3.59525       -10.43489         0.43940
   C       -4.24616        -9.28008        -0.16160
   C       -4.65089        -9.13744        -1.46344
   C       -4.76533        -7.90924        -2.20165
   C       -4.82227        -8.20382        -3.52378
   C       -4.85559        -9.63834        -3.68742
   N       -4.95486       -10.26168        -4.94804
   O       -5.12074       -11.46841        -4.98955
   O       -4.87034        -9.54616        -5.92752
   C       -4.80389       -10.24199        -2.44991
   C       -4.94780       -11.62204        -2.16668
   C       -5.48652       -12.12510        -1.03091
   C       -5.61356       -13.53195        -0.76749
   C       -6.67200       -14.06465        -0.07331
   S       -6.65529       -15.77266        -0.02933
   C       -5.19936       -15.81682        -0.92290
   C       -4.73998       -14.56965        -1.24174
   C       -3.42801       -14.41719        -1.88541
   O       -2.93071       -15.20446        -2.64323
   O       -2.77691       -13.29472        -1.44771
   C       -1.53889       -13.05599        -1.94567
   C       -0.78333       -12.04014        -1.50614
   C        0.54961       -11.78276        -1.95372
   C        1.17544       -12.12259        -3.10640
   C        2.67194       -12.08661        -3.13454
   O        3.39137       -11.54352        -2.33221
   C        3.05575       -12.90239        -4.30114
   C        4.29976       -13.30905        -4.69060
   C        4.42615       -14.13469        -5.82953
   C        3.25546       -14.53012        -6.54101
   C        3.38823       -15.36814        -7.66664
   C        4.62424       -15.78991        -8.06908
   C        5.78168       -15.39425        -7.36741
   C        5.68615       -14.58369        -6.27125
   F        6.97911       -15.82306        -7.78471
   F        4.74904       -16.58675        -9.13679
   C        1.98173       -14.08400        -6.12143
   C        1.88430       -13.27358        -5.02145
   C        0.72750       -12.65206        -4.38269
   C       -0.46909       -12.40288        -4.99874
   C       -1.47899       -11.61102        -4.42326
   N       -2.30685       -10.95051        -3.98063
   C       -0.78302       -12.84468        -6.30276
   N       -1.06793       -13.19233        -7.35760
   H      -10.85174         1.01290        -4.54962
   H       -9.27711        -3.13928        -6.75719
   H       -9.71627         0.37644        -2.49108
   H       -8.10864        -3.81776        -4.65714
   H       -6.55817        -2.39723         1.28218
   H       -2.69184       -10.72859         2.40682
   H       -3.38453       -11.34436        -0.08487
   H       -4.69680        -6.92467        -1.78390
   H       -4.84447        -7.51448        -4.34678
   H       -4.69169       -12.28801        -2.98153
   H       -5.94043       -11.46132        -0.30654
   H       -7.48373       -13.52509         0.37357
   H       -4.72379       -16.75076        -1.14946
   H       -1.19619       -13.77919        -2.67769
   H       -1.15568       -11.41108        -0.71047
   H        1.19107       -11.28967        -1.22880
   H        5.17452       -13.00810        -4.13464
   H        2.51347       -15.67668        -8.21739
   H        6.58079       -14.29044        -5.74470
   H        1.11188       -14.40530        -6.67177
*
