# ORCA input file
# SCF done       -252.768002687323          0.000949901453
! CAM-B3LYP def2-SVP def2/J RIJCOSX Grid4 TightSCF
%maxcore 5000
%tddft
    Mode sTDDFT
    Ethresh 5.0
    maxcore 5000
end

%pal
  nprocs 6
  end
* xyz 0 1
   C       -3.37857        -2.05580        -7.78127
   C       -2.21972        -2.75830        -7.95941
   F       -1.12914        -2.14818        -8.43484
   C       -2.15784        -4.13211        -7.64576
   F       -1.01050        -4.79469        -7.83083
   C       -3.25617        -4.78374        -7.15880
   C       -4.46549        -4.08769        -6.96523
   C       -4.52876        -2.69847        -7.28048
   C       -5.73041        -1.97952        -7.09198
   C       -6.83429        -2.62937        -6.60449
   C       -6.76631        -4.01996        -6.30112
   C       -5.61692        -4.73885        -6.47118
   C       -8.08218        -4.49052        -5.83558
   O       -8.39847        -5.61557        -5.52128
   C       -8.97122        -3.29673        -5.90294
   C       -8.17577        -2.14771        -6.30166
   C       -8.59336        -0.84632        -6.30151
   C       -9.86669        -0.43428        -5.85025
   N      -10.86878        -0.04963        -5.44491
   C       -7.78529         0.24388        -6.69072
   N       -7.17026         1.16007        -7.00404
   C      -10.31791        -3.37535        -5.78923
   C      -11.03167        -4.54113        -5.36642
   C      -12.02343        -5.17018        -6.08401
   N      -12.47396        -4.77106        -7.35798
   O      -13.42093        -5.36349        -7.83467
   O      -11.88511        -3.84696        -7.89712
   C      -12.47541        -6.34271        -5.37465
   C      -11.73410        -6.46686        -4.24869
   C      -10.81115        -5.36202        -4.16462
   C       -9.98220        -5.02706        -3.12036
   C       -9.54597        -3.70400        -2.79261
   C       -8.86477        -3.75256        -1.61882
   C       -8.79065        -5.11462        -1.16693
   N       -8.04610        -5.40418        -0.00356
   O       -8.21082        -6.46558         0.57529
   O       -7.26840        -4.54670         0.37199
   C       -9.45341        -5.94127        -2.08044
   C       -9.49039        -7.33895        -2.26818
   C       -9.16589        -8.30879        -1.35661
   C       -9.20874        -9.68203        -1.66234
   N       -8.85154       -10.65865        -0.76570
   C       -8.25937       -10.45803         0.54160
   C       -9.29031       -10.19250         1.63174
   C       -9.01572       -11.94696        -1.29420
   O       -8.80607       -12.96969        -0.68116
   C       -9.47567       -11.72111        -2.65506
   C       -9.60033       -10.33252        -2.84853
   C      -10.07924       -10.11608        -4.19847
   O      -10.38179        -9.10911        -4.80438
   N      -10.18837       -11.41013        -4.74439
   C      -10.47614       -11.60497        -6.14679
   C       -9.20813       -11.90259        -6.94246
   C       -9.83177       -12.37684        -3.83734
   C       -9.89225       -13.76624        -4.08865
   C       -9.40551       -14.69460        -3.22141
   C       -9.55683       -16.08562        -3.43779
   O      -10.43288       -16.54647        -4.36247
   C      -10.45434       -17.89451        -4.32914
   C       -9.54507       -18.33372        -3.36513
   C       -8.97785       -17.17231        -2.78635
   N       -8.05324       -17.09360        -1.68982
   O       -7.25349       -16.18851        -1.72874
   O       -8.17847       -17.91215        -0.81537
   N       -9.15231       -19.69013        -3.12743
   O       -9.96548       -20.54941        -3.38118
   O       -8.02218       -19.86537        -2.74465
   C      -11.28166       -18.66207        -5.19996
   C      -12.27086       -18.20232        -5.99965
   C      -12.79123       -16.87430        -6.12865
   C      -13.06163       -15.92430        -5.20245
   C      -13.31695       -14.52476        -5.65572
   O      -13.50219       -14.15812        -6.79170
   C      -13.17399       -13.69104        -4.44744
   C      -13.21424       -12.32992        -4.34033
   C      -12.95277       -11.73304        -3.08856
   C      -12.66008       -12.56204        -1.96606
   C      -12.39860       -11.95936        -0.71879
   C      -12.42407       -10.59876        -0.59875
   C      -12.68658        -9.78152        -1.71647
   C      -12.95358       -10.33236        -2.93696
   F      -12.66146        -8.44916        -1.56615
   F      -12.19982       -10.01631         0.58338
   C      -12.65270       -13.96876        -2.10042
   C      -12.91848       -14.52762        -3.32300
   C      -13.02088       -15.92067        -3.74906
   C      -13.23705       -16.98949        -2.92569
   C      -13.60364       -18.26987        -3.39234
   N      -13.95357       -19.30804        -3.72966
   C      -13.20900       -16.90353        -1.51648
   N      -13.17043       -16.87572        -0.37094
   H       -3.40837        -1.00534        -8.02510
   H       -3.19206        -5.83473        -6.92440
   H       -5.75140        -0.93167        -7.34493
   H       -5.58859        -5.79141        -6.23369
   H      -10.93249        -2.54231        -6.11400
   H      -13.26722        -6.97575        -5.72616
   H      -11.87949        -7.18551        -3.46962
   H       -9.82008        -2.81745        -3.33083
   H       -8.43840        -2.93079        -1.07431
   H       -9.79251        -7.65526        -3.25795
   H       -8.87946        -8.03237        -0.35386
   H       -7.54604        -9.63271         0.48482
   H       -7.71936       -11.38124         0.76922
   H       -9.85633        -9.28746         1.43091
   H       -8.77815       -10.07162         2.58148
   H       -9.97927       -11.02844         1.71549
   H      -10.91769       -10.66814        -6.49676
   H      -11.20522       -12.40889        -6.27164
   H       -8.50826       -11.07526        -6.85465
   H       -9.45868       -12.03564        -7.99078
   H       -8.72426       -12.80707        -6.57992
   H      -10.34124       -14.09351        -5.01655
   H       -8.86858       -14.39851        -2.32973
   H      -11.06388       -19.72120        -5.19607
   H      -12.71196       -18.91769        -6.68268
   H      -13.01558       -16.57283        -7.15006
   H      -13.43978       -11.71488        -5.19821
   H      -12.18875       -12.57221         0.14366
   H      -13.15708        -9.69419        -3.78258
   H      -12.42811       -14.56894        -1.23355
*
