# ORCA input file
# SCF done       -257.435529079305          0.000944532151
! CAM-B3LYP def2-SVP def2/J RIJCOSX Grid4 TightSCF
%maxcore 5000
%tddft
    Mode sTDDFT
    Ethresh 5.0
    maxcore 5000
end

%pal
  nprocs 6
  end
* xyz 0 1
   C       -5.19767        -2.79869       -10.85286
   C       -4.15173        -3.51604       -11.36199
   F       -3.33155        -2.96353       -12.26279
   C       -3.92323        -4.84444       -10.94710
   F       -2.89210        -5.52344       -11.46373
   C       -4.74396        -5.43636       -10.02841
   C       -5.83150        -4.72387        -9.48608
   C       -6.06335        -3.38065        -9.90469
   C       -7.14987        -2.64796        -9.37668
   C       -7.98019        -3.24118        -8.46170
   C       -7.74618        -4.58660        -8.05279
   C       -6.70049        -5.31605        -8.54328
   C       -8.79546        -5.00352        -7.10565
   O       -8.91939        -6.06868        -6.54577
   C       -9.72495        -3.84453        -7.02017
   C       -9.15662        -2.73469        -7.76702
   C       -9.60254        -1.44390        -7.74515
   C      -10.67372        -1.01075        -6.93311
   N      -11.50656        -0.61841        -6.24870
   C       -9.01235        -0.38973        -8.47500
   N       -8.56746         0.49645        -9.05149
   C      -10.96073        -3.95874        -6.48788
   C      -11.42243        -5.13641        -5.80058
   C      -12.40800        -5.97067        -6.26895
   N      -13.07219        -5.78524        -7.49326
   O      -13.97122        -6.54904        -7.78193
   O      -12.69548        -4.85483        -8.19372
   C      -12.58635        -7.08097        -5.36176
   C      -11.68521        -6.95147        -4.36168
   C      -10.91318        -5.74786        -4.56694
   C       -9.96998        -5.17431        -3.74687
   C       -9.63375        -3.78365        -3.71830
   C       -8.81483        -3.55833        -2.65886
   C       -8.55281        -4.80005        -1.98545
   N       -7.67499        -4.80421        -0.88445
   O       -6.94874        -3.83474        -0.75910
   O       -7.68540        -5.74262        -0.10145
   C       -9.22111        -5.83469        -2.65145
   C       -9.12816        -7.23979        -2.58788
   C       -8.61094        -7.99092        -1.56479
   C       -8.53148        -9.39456        -1.61448
   N       -7.98208       -10.15019        -0.60879
   C       -7.44620        -9.66212         0.64259
   C       -8.55010        -9.35890         1.65119
   C       -8.01816       -11.52264        -0.89483
   O       -7.60443       -12.38522        -0.15238
   C       -8.64154       -11.59732        -2.20603
   C       -8.95185       -10.28828        -2.61706
   C       -9.60443       -10.37126        -3.90926
   O      -10.06735        -9.52527        -4.64424
   N       -9.62525       -11.74907        -4.20046
   C      -10.22706       -12.24525        -5.41539
   C      -11.62700       -12.80174        -5.16914
   C       -9.05521       -12.49315        -3.19987
   C       -8.91571       -13.89979        -3.24009
   C       -8.29064       -14.60795        -2.26297
   C       -8.14599       -16.01884        -2.31421
   S       -8.96963       -16.96433        -3.51598
   C       -8.30339       -18.44321        -2.92367
   C       -7.51784       -18.21565        -1.80611
   C       -7.40666       -16.84589        -1.47869
   C       -6.52862       -16.30624        -0.38256
   F       -7.21422       -16.06638         0.74434
   F       -5.53149       -17.13888        -0.06774
   F       -5.94039       -15.15625        -0.73320
   C       -6.97507       -19.31796        -0.94111
   F       -7.61063       -20.48693        -1.14857
   F       -5.67402       -19.57485        -1.14856
   F       -7.13005       -19.05516         0.35805
   C       -8.62072       -19.65905        -3.61715
   C       -7.80111       -20.67877        -3.94356
   C       -8.40027       -21.98976        -4.36554
   O       -9.53515       -22.16883        -4.72815
   C       -7.32013       -22.97285        -4.18183
   C       -7.37519       -24.33448        -4.28263
   C       -6.20849       -25.08903        -4.03003
   C       -5.00404       -24.41799        -3.66382
   C       -3.84692       -25.17948        -3.40251
   C       -3.88156       -26.54192        -3.50542
   C       -5.07219       -27.20437        -3.87113
   C       -6.21175       -26.49452        -4.12745
   F       -5.07595       -28.53866        -3.96474
   F       -2.78304       -27.26360        -3.26073
   C       -4.97408       -23.00845        -3.57191
   C       -6.11327       -22.29605        -3.83878
   C       -6.36011       -20.86000        -3.85263
   C       -5.40934       -19.88902        -3.99184
   C       -5.71035       -18.52947        -4.20914
   N       -5.92663       -17.42301        -4.42359
   C       -4.02156       -20.15319        -4.02605
   N       -2.88927       -20.32355        -4.07717
   H       -5.35799        -1.78341       -11.18048
   H       -4.55573        -6.45347        -9.72230
   H       -7.30725        -1.63682        -9.71658
   H       -6.54271        -6.33378        -8.22017
   H      -11.69720        -3.17766        -6.64145
   H      -13.31824        -7.85233        -5.50289
   H      -11.61032        -7.58184        -3.49907
   H      -10.05462        -3.03709        -4.36362
   H       -8.41245        -2.61820        -2.33056
   H       -9.49537        -7.75985        -3.46278
   H       -8.25322        -7.50424        -0.67090
   H       -6.83968        -8.77275         0.45848
   H       -6.80483       -10.45908         1.02804
   H       -9.20769        -8.57398         1.28588
   H       -8.10488        -9.02865         2.58479
   H       -9.13930       -10.25243         1.84335
   H       -9.57776       -13.00340        -5.86091
   H      -10.28764       -11.38952        -6.09344
   H      -11.60315       -13.62860        -4.46285
   H      -12.04983       -13.15385        -6.10555
   H      -12.27182       -12.02299        -4.76978
   H       -9.30722       -14.42231        -4.10287
   H       -7.87956       -14.08923        -1.40662
   H       -9.65808       -19.77543        -3.91685
   H       -8.29705       -24.82831        -4.54937
   H       -2.92752       -24.68831        -3.12469
   H       -7.11406       -27.01661        -4.40478
   H       -4.05648       -22.52372        -3.27890
*
