# ORCA input file
# SCF done       -172.880983558751          0.000768987430
! CAM-B3LYP def2-SVP def2/J RIJCOSX Grid4 TightSCF
%maxcore 5000
%tddft
    Mode sTDDFT
    Ethresh 5.0
    maxcore 5000
end

%pal
  nprocs 6
  end
* xyz 0 1
   C       -8.48677         2.01045         5.92358
   C       -9.24599         2.08132         7.05750
   F       -9.56533         3.27233         7.58093
   C       -9.70222         0.90724         7.69018
   F      -10.44512         1.00753         8.80071
   C       -9.39234        -0.32211         7.17981
   C       -8.61095        -0.42839         6.01289
   C       -8.14913         0.75784         5.37203
   C       -7.36201         0.67611         4.20092
   C       -7.04644        -0.55427         3.68589
   C       -7.51515        -1.73253         4.33063
   C       -8.27400        -1.68555         5.46392
   C       -7.04036        -2.92064         3.59097
   O       -7.16886        -4.07631         3.92206
   C       -6.32507        -2.38536         2.40073
   C       -6.26388        -0.94131         2.51434
   C       -5.57875        -0.07650         1.69928
   C       -5.55256         1.32318         1.87538
   N       -5.49018         2.46593         1.96288
   C       -4.78297        -0.44611         0.59494
   N       -4.11003        -0.66505        -0.30982
   C       -5.83010        -3.14983         1.38141
   C       -5.98144        -4.54950         1.26481
   C       -5.28839        -5.24614         0.31905
   C       -5.38668        -6.64488         0.14552
   N       -4.52183        -7.37952        -0.63628
   C       -3.36265        -6.88269        -1.33824
   C       -2.20010        -6.60085        -0.39015
   C       -4.81994        -8.74987        -0.60651
   O       -4.18553        -9.59233        -1.21039
   C       -5.98778        -8.84263         0.24361
   C       -6.31439        -7.53953         0.68210
   C       -7.52307        -7.62653         1.48070
   O       -8.20045        -6.78808         2.02946
   N       -7.82300        -9.00485         1.49951
   C       -8.98396        -9.50634         2.19529
   C      -10.12502        -9.83892         1.23699
   C       -6.92494        -9.73776         0.76670
   C       -6.97323       -11.14805         0.64792
   C       -6.08981       -11.86446        -0.10025
   C       -6.06610       -13.28283        -0.14928
   C       -6.50598       -14.10493         0.84377
   C       -6.81561       -13.68034         2.15923
   C       -7.51231       -14.36870         3.10777
   C       -7.39521       -14.00905         4.54370
   O       -6.94692       -12.98076         4.99736
   C       -7.90718       -15.18614         5.27621
   C       -7.91557       -15.42442         6.61997
   C       -8.43435       -16.64909         7.09762
   C       -8.93526       -17.60734         6.16888
   C       -9.44337       -18.82957         6.65247
   C       -9.45635       -19.08737         7.99464
   C       -8.96303       -18.13806         8.91230
   C       -8.46261       -16.94387         8.47448
   F       -8.98799       -18.41762        10.22182
   F       -9.93959       -20.24916         8.45210
   C       -8.92388       -17.32905         4.78262
   C       -8.42055       -16.13422         4.34344
   C       -8.31380       -15.56601         3.00261
   C       -9.00819       -15.97034         1.89173
   C       -9.11730       -15.16858         0.73638
   N       -9.28111       -14.49597        -0.17901
   C       -9.78208       -17.14685         1.83607
   N      -10.40164       -18.10842         1.74436
   H       -8.14511         2.91884         5.45240
   H       -9.74888        -1.21145         7.67541
   H       -7.03080         1.59249         3.74010
   H       -8.61366        -2.59651         5.93272
   H       -5.28525        -2.65806         0.58480
   H       -6.64264        -5.06187         1.94952
   H       -4.59322        -4.71155        -0.31624
   H       -3.63194        -5.98511        -1.90165
   H       -3.07941        -7.66861        -2.04392
   H       -2.47148        -5.84999         0.34871
   H       -1.34452        -6.24211        -0.95517
   H       -1.91569        -7.51204         0.13045
   H       -9.29525        -8.70558         2.87200
   H       -8.70525       -10.38037         2.79118
   H      -10.40815        -8.95188         0.67558
   H      -10.98806       -10.18120         1.80114
   H       -9.83816       -10.61744         0.53347
   H       -7.77873       -11.66389         1.15089
   H       -5.37789       -11.33681        -0.72344
   H       -5.66343       -13.73024        -1.04742
   H       -6.54388       -15.16950         0.64942
   H       -6.35548       -12.75777         2.50146
   H       -7.53042       -14.68947         7.31029
   H       -9.82752       -19.56605         5.96411
   H       -8.08837       -16.22805         9.18950
   H       -9.30527       -18.07199         4.10004
*
