# ORCA input file
# SCF done       -218.245287954904          0.000674722801
! CAM-B3LYP def2-SVP def2/J RIJCOSX Grid4 TightSCF
%maxcore 5000
%tddft
    Mode sTDDFT
    Ethresh 5.0
    maxcore 5000
end

%pal
  nprocs 6
  end
* xyz 0 1
   C        0.75374        -4.10618        -4.28465
   C        1.56161        -3.61965        -5.30101
   C        2.62967        -4.40428        -5.73649
   C        3.46464        -3.92741        -6.77864
   N        4.13268        -3.53730        -7.62201
   C        2.89391        -5.66412        -5.16339
   C        3.99018        -6.43360        -5.62470
   N        4.87308        -7.06772        -5.98351
   C        2.07727        -6.15419        -4.14473
   C        1.02080        -5.37243        -3.72293
   C        0.01934        -5.67615        -2.68464
   O       -0.05252        -6.65481        -1.97881
   C       -0.91196        -4.51166        -2.68344
   C       -0.41684        -3.52239        -3.63532
   C       -0.93343        -2.28145        -3.85603
   C       -0.40293        -1.35039        -4.77941
   N       -0.01088        -0.56002        -5.51103
   C       -2.05939        -1.75700        -3.17916
   N       -2.96521        -1.27888        -2.66433
   C       -2.02701        -4.50108        -1.93852
   C       -2.37489        -5.60789        -1.04788
   C       -2.12440        -5.54802         0.31689
   C       -1.45010        -4.46799         1.07768
   O       -1.00074        -3.43841         0.64364
   N       -1.43834        -4.90191         2.39986
   C       -2.02785        -6.16876         2.55356
   O       -2.13718        -6.75205         3.59474
   C       -2.45990        -6.58045         1.19176
   C       -3.07072        -7.74118         0.75406
   C       -3.32536        -7.81449        -0.61239
   C       -2.99427        -6.78316        -1.48741
   C       -3.30425        -7.04730        -2.90529
   O       -3.10602        -6.32042        -3.83482
   S       -4.03506        -8.67288        -3.04372
   C       -3.94650        -8.98639        -1.26866
   O       -4.33494        -9.98855        -0.75823
   C       -0.93462        -4.22473         3.51225
   C       -0.39645        -3.00445         3.49456
   C        0.09252        -2.31082         4.67265
   C        0.31890        -0.93665         4.61562
   C        0.76055        -0.24415         5.74346
   C        0.93491        -0.99235         6.91592
   N        0.75873        -2.29630         6.97191
   C        0.36681        -2.94280         5.89259
   C        0.98651         1.18391         5.66163
   C        1.63091         1.91356         6.58294
   C        1.79177         3.34973         6.54404
   C        1.63002         4.08850         7.72622
   C        1.31974         3.59347         9.08660
   O        1.12849         2.46550         9.45662
   N        1.25729         4.73846         9.89838
   C        1.47578         5.92149         9.16450
   O        1.45644         7.02464         9.63006
   C        1.71136         5.48014         7.77064
   C        1.97285         6.23381         6.64214
   C        2.18645         5.51542         5.47131
   C        2.11269         4.12324         5.40675
   C        2.50758         3.57743         4.08855
   O        2.63788         2.43989         3.75353
   S        2.84827         4.94036         2.95826
   C        2.53591         6.18914         4.19989
   O        2.60920         7.36244         4.00225
   C        1.10055         4.77856        11.26765
   C        1.01197         3.70022        12.06598
   C        0.93714         3.80542        13.48102
   C        1.17678         2.79668        14.35853
   C        0.72786         2.89667        15.77296
   O        0.35822         3.88723        16.35364
   C        0.77777         1.50717        16.28747
   C        0.35095         1.02929        17.50848
   C        0.46397        -0.33970        17.75593
   C        0.99511        -1.19535        16.77153
   C        1.43376        -0.70022        15.54225
   C        1.32866         0.65978        15.30488
   C        1.72340         1.46921        14.15055
   C        2.62510         1.09122        13.19397
   C        3.21633         1.96427        12.25322
   N        3.77432         2.62884        11.50255
   C        3.17064        -0.20939        13.10332
   N        3.63236        -1.25221        12.98371
   C        1.08168        -2.58594        17.03194
   N        1.15043        -3.71099        17.23103
   C        0.03589        -0.87168        18.99652
   N       -0.31634        -1.28409        20.00485
   H        1.38893        -2.66181        -5.76546
   H        2.26403        -7.11919        -3.69862
   H       -2.71613        -3.66751        -1.94864
   H       -3.32757        -8.54968         1.41984
   H       -1.05218        -4.80762         4.41542
   H       -0.33152        -2.45586         2.56632
   H        0.15669        -0.40322         3.68911
   H        1.21302        -0.52355         7.84920
   H        0.27403        -4.01362         6.00583
   H        0.57385         1.66288         4.78377
   H        1.98942         1.44664         7.48923
   H        2.02941         7.31027         6.65933
   H        1.12513         5.78819        11.66045
   H        1.00970         2.71349        11.62964
   H        0.61239         4.74722        13.90865
   H       -0.06087         1.69575        18.25097
   H        1.82940        -1.38446        14.80837
*
