# ORCA input file
# SCF done       -216.681783529525          0.000487137945
! CAM-B3LYP def2-SVP def2/J RIJCOSX Grid4 TightSCF
%maxcore 5000
%tddft
    Mode sTDDFT
    Ethresh 5.0
    maxcore 5000
end

%pal
  nprocs 6
  end
* xyz 0 1
   N       -3.79798         0.01090        -0.61891
   C       -2.57987         0.49966        -0.17475
   C       -2.19001         0.46248         1.13229
   S       -0.70113         1.28470         1.40253
   C       -0.56610         1.65730        -0.26356
   C       -1.62083         1.18902        -0.99033
   N       -1.72153         1.27701        -2.38684
   C       -1.84333         0.02332        -3.08214
   C       -3.17600        -0.68152        -2.85996
   O       -3.38134        -1.80221        -3.24856
   C       -4.16643         0.10723        -2.01675
   C       -1.51831         2.45067        -3.07203
   C       -1.51659         3.68017        -2.53495
   C       -1.31595         4.91472        -3.26138
   C       -0.85592         4.94947        -4.58613
   C       -0.69609         6.15512        -5.22541
   C       -0.94453         7.36111        -4.54775
   C       -1.39050         7.34345        -3.23546
   C       -1.57745         6.12685        -2.61065
   C       -0.59983         8.46435        -5.42124
   C       -0.13320         7.93957        -6.63572
   C       -0.22481         6.42774        -6.63692
   C       -1.29713         6.04657        -7.68439
   C       -1.71008         4.58086        -7.71219
   C        1.12529         5.76360        -6.94070
   C        2.22194         6.22500        -5.98777
   C        0.29078         8.77263        -7.64311
   C        0.26383        10.15800        -7.45118
   C       -0.20680        10.66911        -6.23996
   C       -0.63910         9.83614        -5.22497
   C        0.73061        11.05829        -8.51119
   C        1.44485        12.18607        -8.21437
   C        1.90291        13.03078        -9.25321
   C        2.63046        14.20657        -9.21710
   C        3.09543        14.92255        -7.99042
   C        4.59834        15.24762        -8.02366
   N        5.13206        15.22415        -6.67229
   C        2.24891        16.18682        -7.75755
   N        0.90227        15.80024        -7.37622
   C        2.80025        14.63542       -10.58795
   C        3.38540        15.71852       -11.13004
   C        3.42272        15.94678       -12.59946
   C        2.79116        14.86038       -13.41747
   C        2.18207        13.79764       -12.86236
   C        2.15083        13.63955       -11.45720
   C        1.60384        12.67706       -10.63527
   C        0.85042        11.51087       -10.90635
   C        0.43283        10.73440        -9.87590
   C        2.75867        17.24766       -12.99070
   C        1.79130        17.82866       -12.28369
   C        1.06486        19.03717       -12.63764
   C        1.30014        19.74218       -13.82499
   C        0.55831        20.86252       -14.10834
   C       -0.43030        21.31610       -13.21950
   C       -0.66644        20.63448       -12.03667
   C        0.08082        19.50516       -11.76059
   C       -1.05170        22.49771       -13.78636
   C       -0.44714        22.76612       -15.02398
   C        0.63377        21.75616       -15.32433
   C        0.32993        20.98021       -16.61894
   C       -1.01370        20.26241       -16.57577
   C        2.01247        22.43249       -15.44197
   C        2.38347        23.23680       -14.20201
   C       -0.85191        23.83433       -15.78993
   C       -1.87989        24.65167       -15.31634
   C       -2.48623        24.37941       -14.09103
   C       -2.07321        23.30899       -13.31835
   N       -2.34398        25.72167       -16.10803
   C       -2.30144        27.02581       -15.65296
   C       -1.98216        27.39352       -14.37640
   S       -2.09515        29.09245       -14.11788
   C       -2.52548        29.33889       -15.75715
   C       -2.60403        28.17563       -16.46362
   N       -2.91826        28.13148       -17.83362
   C       -1.90148        27.58284       -18.69977
   C       -1.55002        26.15527       -18.34350
   O       -0.50820        25.63835       -18.65498
   C       -2.61253        25.45905       -17.50870
   C       -3.83504        29.04529       -18.31787
   C       -3.96322        29.49257       -19.56194
   H       -4.10476        -0.83297        -0.15811
   H       -2.70725         0.01753         1.95731
   H        0.27967         2.20547        -0.62650
   H       -1.04453        -0.67193        -2.78265
   H       -1.73943         0.18564        -4.15944
   H       -5.16888        -0.30638        -2.13637
   H       -4.16504         1.16103        -2.30953
   H       -1.39725         2.30765        -4.13676
   H       -1.69954         3.78462        -1.47414
   H       -0.60005         4.02952        -5.08826
   H       -1.58028         8.26542        -2.70554
   H       -1.92637         6.10169        -1.58760
   H       -0.91533         6.32864        -8.66860
   H       -2.18477         6.65440        -7.48894
   H       -0.85703         3.93186        -7.89388
   H       -2.42988         4.42307        -8.51314
   H       -2.18015         4.29628        -6.77460
   H        1.41292         5.99983        -7.96775
   H        1.01940         4.68030        -6.86299
   H        2.36800         7.30008        -6.06378
   H        3.16150         5.73099        -6.22629
   H        1.95731         5.98784        -4.95953
   H        0.67543         8.36660        -8.56766
   H       -0.24956        11.74004        -6.10457
   H       -1.00292        10.25039        -4.29613
   H        1.68494        12.42809        -7.19003
   H        2.93541        14.26660        -7.13051
   H        4.76215        16.21239        -8.53370
   H        5.12109        14.47378        -8.59325
   H        4.66736        15.91860        -6.09696
   H        6.12392        15.43492        -6.67557
   H        2.28378        16.81704        -8.66413
   H        2.66744        16.76770        -6.92900
   H        0.50784        15.18753        -8.08334
   H        0.30370        16.61466        -7.29417
   H        3.85328        16.48403       -10.52669
   H        4.48299        16.02738       -12.88917
   H        2.82297        14.99453       -14.48828
   H        1.71795        13.04418       -13.48313
   H        0.61120        11.25625       -11.92909
   H       -0.16490         9.85551       -10.06949
   H        3.08273        17.65209       -13.93840
   H        1.48795        17.37095       -11.34956
   H        2.05447        19.40364       -14.51827
   H       -1.42235        20.97352       -11.34382
   H       -0.09994        18.96129       -10.84378
   H        1.12449        20.24956       -16.78462
   H        0.34176        21.68148       -17.45590
   H       -1.03541        19.53682       -15.76560
   H       -1.18918        19.73849       -17.51269
   H       -1.82363        20.97182       -16.41983
   H        2.00485        23.09140       -16.31253
   H        2.76650        21.66089       -15.61213
   H        1.66349        24.03424       -14.03288
   H        3.36775        23.68261       -14.32552
   H        2.40135        22.59863       -13.32124
   H       -0.38037        24.05129       -16.73666
   H       -3.29990        25.00553       -13.75794
   H       -2.55345        23.10477       -12.37317
   H       -1.68637        26.76619       -13.56205
   H       -2.70107        30.33120       -16.12173
   H       -0.98659        28.19380       -18.72006
   H       -2.29748        27.54695       -19.71992
   H       -2.57191        24.38057       -17.66790
   H       -3.60908        25.83212       -17.76956
   H       -4.53546        29.36112       -17.55624
   H       -3.29544        29.24057       -20.36614
   H       -4.77385        30.15060       -19.81192
*
