# ORCA input file
# SCF done       -191.327019659989          0.000619833621
! CAM-B3LYP def2-SVP def2/J RIJCOSX Grid4 TightSCF
%maxcore 5000
%tddft
    Mode sTDDFT
    Ethresh 5.0
    maxcore 5000
end

%pal
  nprocs 6
  end
* xyz 0 1
   C       10.61276        -3.40521         2.99855
   C       11.01243        -2.22663         3.55368
   C       12.10586        -1.28729         3.18774
   N       10.18618        -1.97914         4.61727
   C        9.26646        -2.97136         4.75443
   C        8.25911        -2.92300         5.84767
   C        9.50160        -3.89751         3.74566
   C        8.82718        -5.11921         3.42732
   C        7.75233        -5.65569         4.03807
   C        7.13391        -6.87571         3.63720
   S        7.72390        -7.83300         2.30690
   C        6.45035        -9.00312         2.51494
   C        5.63287        -8.65036         3.56671
   C        6.01798        -7.46352         4.19273
   C        6.33164       -10.12620         1.65126
   C        5.32207       -11.06524         1.61622
   C        5.48900       -12.02576         0.61868
   C        6.63343       -11.84925        -0.12993
   S        7.52045       -10.45792         0.42496
   C        7.08203       -12.62658        -1.23300
   S        8.65681       -12.39918        -1.93296
   C        8.35734       -13.61833        -3.14240
   C        7.09965       -14.15879        -2.97616
   C        6.38980       -13.61075        -1.90846
   C        9.35806       -13.91258        -4.11486
   C        9.13907       -14.63829        -5.23076
   C       10.10556       -14.95052        -6.25322
   C        9.65805       -15.36046        -7.48729
   C       10.57252       -15.64017        -8.52297
   C       10.37063       -16.01752        -9.83996
   C        9.05338       -16.25426       -10.50387
   C        8.86267       -15.39212       -11.76416
   N        7.45412       -15.07874       -11.93180
   C        8.86750       -17.75168       -10.80616
   N        8.69087       -18.47265        -9.55797
   C       11.67857       -16.17474       -10.43264
   C       12.06708       -16.49270       -11.68071
   C       13.50821       -16.61639       -12.05392
   C       14.46326       -16.35226       -10.93765
   C       14.06304       -15.99094        -9.70532
   C       12.68488       -15.88317        -9.39791
   C       12.00211       -15.54324        -8.25023
   C       12.43448       -15.14535        -6.96147
   C       11.51797       -14.84770        -6.00880
   C       13.66634       -17.97895       -12.68637
   C       14.21254       -19.03408       -12.07815
   C       14.30490       -20.34424       -12.65549
   S       15.14057       -21.60717       -11.79374
   C       14.79963       -22.76019       -13.05078
   C       14.08008       -22.17262       -14.06657
   C       13.80628       -20.82112       -13.84507
   C       15.23322       -24.11042       -12.96098
   C       16.00211       -24.70849       -11.98898
   C       16.23383       -26.06632       -12.21846
   C       15.64215       -26.53751       -13.37089
   S       14.78579       -25.26255       -14.18920
   C       15.65971       -27.85772       -13.89919
   S       14.75040       -28.25915       -15.32980
   C       15.27331       -29.91859       -15.26013
   C       16.10867       -30.11386       -14.18198
   C       16.32466       -28.96433       -13.41849
   C       14.84206       -30.88876       -16.21286
   C       13.97909       -30.62114       -17.21137
   C       13.51010       -31.53329       -18.21280
   C       14.14802       -32.65429       -18.71822
   C       15.45455       -33.27918       -18.38083
   N       13.37900       -33.14502       -19.72824
   C       12.26117       -32.37973       -19.90152
   C       11.24210       -32.73558       -20.92453
   C       12.29966       -31.36472       -18.97147
   C       11.27879       -30.35337       -18.78639
   C       10.95569       -29.78232       -17.63239
   H       11.04824        -3.88832         2.14650
   H       12.63912        -1.66570         2.32085
   H       12.81398        -1.17495         4.00970
   H       11.70703        -0.30105         2.94699
   H       10.25104        -1.17216         5.21657
   H        8.42095        -2.04281         6.46807
   H        8.33149        -3.80747         6.48019
   H        7.24802        -2.87571         5.44264
   H        9.24642        -5.65597         2.58379
   H        7.28566        -5.16681         4.87945
   H        4.78496        -9.23682         3.87170
   H        5.49489        -7.03632         5.03054
   H        4.48415       -11.04850         2.28933
   H        4.79805       -12.83172         0.44951
   H        6.70972       -14.93927        -3.60421
   H        5.39300       -13.91097        -1.63997
   H       10.32853       -13.47364        -3.92869
   H        8.13568       -14.99369        -5.42653
   H        8.59779       -15.44981        -7.67460
   H        8.26180       -15.96725        -9.80669
   H        9.29654       -15.90644       -12.63883
   H        9.39400       -14.44477       -11.63453
   H        6.91454       -15.92937       -12.05112
   H        7.31107       -14.50010       -12.75199
   H        9.72604       -18.11194       -11.39955
   H        7.95948       -17.90181       -11.39953
   H        9.48081       -18.29329        -8.94554
   H        8.64472       -19.47194        -9.72533
   H       11.35696       -16.69475       -12.47009
   H       13.70454       -15.87587       -12.84751
   H       15.51052       -16.44723       -11.18322
   H       14.78723       -15.78591        -8.92957
   H       13.49298       -15.07969        -6.75352
   H       11.84505       -14.55109        -5.02409
   H       13.24546       -18.07623       -13.67709
   H       14.62468       -18.92512       -11.08394
   H       13.76712       -22.71841       -14.93934
   H       13.25150       -20.21421       -14.53745
   H       16.38075       -24.16719       -11.13956
   H       16.81151       -26.68984       -11.56072
   H       16.54751       -31.06971       -13.95464
   H       16.94820       -28.93859       -12.54294
   H       15.22816       -31.88621       -16.06156
   H       13.58210       -29.61557       -17.28448
   H       15.36175       -33.95096       -17.52565
   H       16.18504       -32.51190       -18.13231
   H       15.82619       -33.85708       -19.22593
   H       13.60483       -33.95926       -20.27656
   H       11.72097       -33.00016       -21.86754
   H       10.57310       -31.89752       -21.09606
   H       10.64173       -33.58651       -20.59776
   H       10.73350       -30.08069       -19.68262
   H       11.43096       -30.05341       -16.70593
   H       10.18578       -29.03219       -17.57292
*
