# ORCA input file
# SCF done       -193.652838741641          0.000520793831
! CAM-B3LYP def2-SVP def2/J RIJCOSX Grid4 TightSCF
%maxcore 5000
%tddft
    Mode sTDDFT
    Ethresh 5.0
    maxcore 5000
end

%pal
  nprocs 6
  end
* xyz 0 1
   C        4.08226       -12.12648         0.14764
   C        4.14878       -12.81280         1.35117
   C        3.53989       -12.31090         2.49043
   C        2.84619       -11.10945         2.45764
   C        2.78145       -10.40975         1.26502
   C        3.40216       -10.92065         0.10438
   C        3.14635       -10.00351        -0.99682
   C        3.66654       -10.13223        -2.26308
   C        4.47571       -11.20989        -2.67691
   N        5.14518       -12.04848        -3.08610
   C        3.52502        -9.22411        -3.33134
   N        3.49637        -8.52762        -4.24631
   C        2.32196        -8.92171        -0.48048
   C        2.04256        -9.20485         0.90441
   C        1.07497        -8.63325         1.70936
   C        0.01001        -7.85715         1.22459
   N       -0.91692        -7.28123         0.86369
   C        0.98636        -8.82576         3.09698
   N        0.90444        -8.86651         4.24394
   C        1.92621        -7.88259        -1.31191
   C        1.41858        -6.59240        -1.13322
   C        1.37920        -5.82166         0.02658
   C        0.81791        -4.56462         0.11100
   C        0.26203        -3.88179        -1.06062
   C        0.22259        -4.40507        -2.30549
   S        0.82184        -5.95672        -2.68251
   C       -0.17824        -2.62051        -0.58713
   C        0.04932        -2.51016         0.79169
   C       -0.35676        -1.24334         1.27851
   C       -0.87081        -0.46403         0.29359
   S       -0.89224        -1.21984        -1.26636
   C        0.63026        -3.73649         1.25926
   C        0.84388        -4.16700         2.58106
   C        0.48267        -3.47440         3.70001
   C        0.52647        -3.91812         5.04272
   S       -0.47404        -3.02588         6.16814
   C       -0.20105        -4.18427         7.40141
   C        0.61200        -5.20090         7.00751
   C        1.01083        -6.33647         7.88801
   C        1.07585        -5.04383         5.66657
   C        2.04153        -5.94605         5.10985
   C        3.02238        -5.58245         4.25395
   C        3.93494        -6.46871         3.61416
   C        4.15547        -7.76854         3.92718
   C        4.97201        -8.64898         3.15512
   C        5.23388        -8.46579         1.81422
   C        5.96085        -9.34402         1.02175
   C        6.56243       -10.55378         1.57726
   C        6.45467       -10.92630         2.87336
   S        5.57755       -10.03152         4.03968
   C        7.22855       -11.17725         0.48741
   C        7.08958       -10.40918        -0.67102
   C        7.72095       -11.01930        -1.77745
   C        8.30090       -12.20030        -1.43780
   S        8.11264       -12.62439         0.22645
   C        6.28513        -9.25158        -0.35670
   C        5.87324        -8.20208        -1.18574
   C        6.31546        -7.95055        -2.46307
   C        5.85763        -6.95059        -3.32403
   C        5.08095        -5.81727        -3.11174
   C        4.28994        -5.21489        -4.17400
   C        4.17552        -5.63054        -5.47592
   C        4.91781        -6.64776        -6.11411
   N        5.49554        -7.41357        -6.74596
   C        3.27884        -5.05938        -6.40267
   N        2.56499        -4.64873        -7.20333
   C        3.56164        -4.09308        -3.59034
   C        3.87976        -4.01681        -2.21794
   C        3.39140        -2.97979        -1.43868
   C        2.58923        -2.01916        -2.03364
   C        2.26305        -2.10049        -3.37849
   C        2.74331        -3.13530        -4.16784
   C        4.85787        -5.05255        -1.91274
   C        5.56968        -5.09047        -0.72690
   C        5.11942        -4.49940         0.46141
   N        4.74742        -4.15288         1.49505
   C        6.81218        -5.72206        -0.55210
   N        7.85455        -6.16507        -0.35714
   H        4.54435       -12.54130        -0.73213
   H        4.67755       -13.75257         1.39466
   H        3.59767       -12.86187         3.41698
   H        2.37140       -10.73863         3.35147
   H        2.03821        -8.12201        -2.36324
   H        1.86216        -6.23259         0.90392
   H       -0.19805        -3.87797        -3.14692
   H       -0.26463        -0.89878         2.29177
   H       -1.25139         0.53475         0.38155
   H        1.24958        -5.16041         2.69700
   H        0.00539        -2.51369         3.57199
   H       -0.66222        -4.04937         8.36026
   H        0.53450        -6.24710         8.86061
   H        2.09130        -6.34978         8.02549
   H        0.71348        -7.28272         7.43756
   H        1.96764        -6.97350         5.44018
   H        3.11862        -4.54177         3.97556
   H        4.49430        -6.02233         2.80233
   H        3.72476        -8.18890         4.82527
   H        4.80567        -7.58603         1.35408
   H        6.91502       -11.82106         3.26041
   H        7.74518       -10.63669        -2.78024
   H        8.83820       -12.87123        -2.07843
   H        5.10612        -7.55598        -0.77569
   H        7.03677        -8.63309        -2.88555
   H        6.10728        -7.12947        -4.36200
   H        3.63592        -2.89890        -0.39209
   H        2.22656        -1.19291        -1.44136
   H        1.63841        -1.34049        -3.82288
   H        2.49730        -3.16779        -5.21588
*
