# ORCA input file
# SCF done       -209.157423209597          0.000412903399
! CAM-B3LYP def2-SVP def2/J RIJCOSX Grid4 TightSCF
%maxcore 5000
%tddft
    Mode sTDDFT
    Ethresh 5.0
    maxcore 5000
end

%pal
  nprocs 6
  end
* xyz 0 1
   C        5.44634        -1.03771         1.47637
   C        6.05373        -1.47531         2.64430
   C        5.53663        -2.54221         3.36408
   C        4.38959        -3.19725         2.94096
   C        3.77455        -2.76820         1.77704
   C        4.30546        -1.68914         1.03578
   C        3.47819        -1.47770        -0.14675
   C        3.63482        -0.46351        -1.05665
   C        4.61956         0.54170        -0.95920
   N        5.39122         1.39202        -0.94622
   C        2.83547        -0.24209        -2.19701
   N        2.23824         0.01017        -3.14554
   C        2.49649        -2.55132        -0.17174
   C        2.56339        -3.22681         1.11268
   C        1.55289        -3.93402         1.71363
   C        0.26542        -4.09532         1.16375
   N       -0.81457        -4.21150         0.79192
   C        1.64729        -4.50560         2.99785
   N        1.67492        -5.01385         4.02717
   C        1.73332        -2.87136        -1.26943
   C        1.11244        -4.09257        -1.57861
   S       -0.08510        -4.12360        -2.85194
   C       -0.26748        -5.83871        -2.70973
   C        0.59147        -6.35048        -1.74416
   C        1.34832        -5.38271        -1.11163
   C       -1.19334        -6.54759        -3.50611
   C       -2.05642        -6.04121        -4.46067
   C       -2.84582        -7.01021        -5.06582
   C       -2.60854        -8.29008        -4.59184
   S       -1.37719        -8.27634        -3.36590
   C       -3.24036        -9.49146        -5.00004
   S       -2.80592       -11.03598        -4.32051
   C       -3.97301       -11.86307        -5.30934
   C       -4.64815       -10.96471        -6.11289
   C       -4.24029        -9.64485        -5.94104
   C       -4.10834       -13.27707        -5.20403
   C       -4.99326       -14.00898        -5.91197
   N       -5.08450       -15.36505        -5.83641
   C       -6.07040       -16.13519        -6.42695
   C       -7.25407       -15.68592        -6.93662
   S       -8.21006       -16.95968        -7.57963
   C       -7.01329       -18.12101        -7.17600
   C       -5.92844       -17.55921        -6.56930
   N       -4.76639       -18.20758        -6.16571
   C       -4.63399       -19.53268        -5.84312
   C       -5.63315       -20.35277        -5.46307
   C       -5.47135       -21.73570        -5.15830
   S       -6.85331       -22.64321        -4.62068
   C       -5.92315       -24.11262        -4.52923
   C       -4.61297       -23.87713        -4.89631
   C       -4.36119       -22.55194        -5.24649
   C       -6.52090       -25.34015        -4.14335
   C       -5.94308       -26.59765        -4.12121
   C       -6.81584       -27.60114        -3.71610
   C       -8.08429       -27.14013        -3.41102
   S       -8.18071       -25.41551        -3.63792
   C       -9.20633       -27.88763        -2.97887
   S      -10.68911       -27.11018        -2.52872
   C      -11.44418       -28.64562        -2.17708
   C      -10.55410       -29.68614        -2.41463
   C       -9.30995       -29.26776        -2.85536
   C      -12.77179       -28.74630        -1.73084
   C      -13.59287       -27.67784        -1.50310
   C      -14.90983       -27.82571        -1.04686
   C      -15.82924       -26.81904        -0.86423
   C      -17.00624       -26.91828        -0.01763
   C      -17.61049       -28.06206         0.43811
   C      -17.21317       -29.37721         0.12143
   N      -16.95404       -30.47549        -0.09432
   C      -18.75300       -28.07909         1.26424
   N      -19.67942       -28.16916         1.93673
   C      -17.43540       -25.55428         0.26871
   C      -16.64003       -24.65944        -0.48202
   C      -16.82367       -23.29154        -0.37344
   C      -17.80483       -22.82083         0.48695
   C      -18.59346       -23.69772         1.21680
   C      -18.41939       -25.07033         1.11540
   C      -15.72993       -25.44005        -1.30912
   C      -15.09356       -24.98680        -2.43682
   C      -15.05310       -23.63236        -2.82493
   N      -14.96322       -22.54376        -3.17917
   C      -14.51485       -25.82212        -3.41602
   N      -14.08741       -26.44987        -4.27705
   H        5.86567        -0.20936         0.92989
   H        6.94508        -0.97687         2.99363
   H        6.03130        -2.86979         4.26571
   H        3.99953        -4.02862         3.50551
   H        1.64686        -2.11920        -2.04244
   H        0.64196        -7.40174        -1.52175
   H        2.08918        -5.60653        -0.36423
   H       -2.09813        -4.99242        -4.69635
   H       -3.57115        -6.79600        -5.82877
   H       -5.41507       -11.25631        -6.80681
   H       -4.66081        -8.81878        -6.48505
   H       -3.44869       -13.77017        -4.50259
   H       -5.66742       -13.54738        -6.61498
   H       -4.46227       -15.83525        -5.19344
   H       -7.63643       -14.68663        -6.95323
   H       -7.16623       -19.14696        -7.43852
   H       -3.91210       -17.69254        -6.31733
   H       -3.61403       -19.88889        -5.87210
   H       -6.63586       -19.96457        -5.36886
   H       -3.86310       -24.64727        -4.90908
   H       -3.39591       -22.20162        -5.56398
   H       -4.92059       -26.77533        -4.39980
   H       -6.53681       -28.63641        -3.64191
   H      -10.82389       -30.71662        -2.26542
   H       -8.50186       -29.93528        -3.09232
   H      -13.15682       -29.74824        -1.58795
   H      -13.18687       -26.68590        -1.64695
   H      -15.19028       -28.82160        -0.73191
   H      -16.21395       -22.59976        -0.93169
   H      -17.95362       -21.75654         0.58820
   H      -19.35318       -23.30967         1.87808
   H      -19.03899       -25.73637         1.69296
*
