# ORCA input file
# SCF done       -173.597381964447          0.000974033559
! CAM-B3LYP def2-SVP def2/J RIJCOSX Grid4 TightSCF
%maxcore 5000
%tddft
    Mode sTDDFT
    Ethresh 5.0
    maxcore 5000
end

%pal
  nprocs 6
  end
* xyz 0 1
   C       -9.70170         2.86554         1.98903
   C       -9.39292         4.01487         1.27552
   C       -8.55007         3.96818         0.17587
   C       -7.99857         2.76751        -0.24782
   C       -8.29937         1.61450         0.45667
   C       -9.14963         1.66142         1.58295
   C       -9.26187         0.31795         2.13933
   C       -9.96825        -0.01454         3.26788
   C      -10.75196         0.89520         4.00870
   N      -11.40884         1.57208         4.66364
   C      -10.02022        -1.28415         3.87930
   N      -10.10501        -2.27192         4.46084
   C       -8.41258        -0.54907         1.33684
   C       -7.90908         0.22937         0.23251
   C       -7.36525        -0.25414        -0.93494
   C       -7.26764        -1.61564        -1.26777
   N       -7.15611        -2.71263        -1.59191
   C       -6.85649         0.55219        -1.97018
   N       -6.37065         1.13572        -2.83275
   C       -8.16390        -1.86973         1.66189
   C       -7.06718        -2.68796         1.37938
   S       -7.20222        -4.39926         1.70439
   C       -5.53834        -4.68344         1.31621
   C       -4.90157        -3.49097         0.97782
   C       -5.75610        -2.38096         0.97679
   O       -5.41921        -1.10377         0.69346
   C       -4.19833        -0.90755         0.00691
   C       -3.03017        -1.56470         0.71676
   S       -3.18632        -3.37204         0.58418
   C       -5.02667        -6.00170         1.38090
   N       -3.68222        -6.30799         1.38521
   C       -3.55342        -7.65601         1.47187
   C       -2.62887        -8.68914         1.55474
   C       -3.37689        -9.87469         1.59404
   N       -4.72185        -9.57079         1.53913
   C       -4.85875        -8.22102         1.49086
   C       -5.78024        -7.18345         1.45195
   C       -2.92532       -11.21606         1.64273
   C       -1.66979       -11.59507         1.99235
   C       -1.21530       -12.93232         1.98528
   S       -2.06598       -14.21701         1.18479
   C       -0.85302       -15.39458         1.63855
   C        0.15051       -14.77870         2.39813
   C       -0.04468       -13.40306         2.57771
   O        0.76918       -12.54477         3.24510
   C        2.06563       -13.02852         3.52938
   C        2.04302       -14.37327         4.23690
   S        1.47216       -15.67731         3.09513
   C       -0.78411       -16.71178         1.17609
   C       -1.72066       -17.44643         0.48562
   C       -1.39891       -18.54135        -0.41246
   C       -0.21678       -19.23203        -0.50076
   C        0.91464       -19.03221         0.31659
   N        1.87562       -18.93108         0.93818
   C        0.02351       -20.27529        -1.41844
   N        0.29162       -21.12841        -2.13886
   C       -2.57636       -18.75629        -1.24796
   C       -3.61926       -17.91776        -0.79336
   C       -4.84816       -17.90697        -1.42984
   C       -5.03196       -18.73617        -2.52681
   C       -4.01350       -19.56690        -2.96991
   C       -2.77900       -19.58849        -2.33669
   C       -3.14645       -17.20367         0.38239
   C       -3.93681       -16.66037         1.36412
   C       -5.32313       -16.45543         1.23742
   N       -6.44759       -16.23030         1.17426
   C       -3.45000       -16.33649         2.64714
   N       -3.09914       -16.12236         3.71936
   H      -10.36051         2.92302         2.83937
   H       -9.81659         4.95795         1.58543
   H       -8.31878         4.87554        -0.36110
   H       -7.34373         2.74596        -1.10370
   H       -8.89616        -2.34762         2.30085
   H       -4.06840         0.17709        -0.03204
   H       -4.28080        -1.29568        -1.01755
   H       -3.01024        -1.29136         1.77237
   H       -2.08614        -1.30360         0.24389
   H       -2.93866        -5.63146         1.35911
   H       -1.56034        -8.62379         1.55704
   H       -5.46192       -10.25061         1.58218
   H       -6.85035        -7.23108         1.45433
   H       -3.64964       -11.98545         1.40247
   H       -0.95228       -10.86526         2.33830
   H        2.51392       -12.26684         4.17231
   H        2.64965       -13.10656         2.60205
   H        1.36616       -14.34963         5.09130
   H        3.04032       -14.66367         4.55859
   H        0.19653       -17.15585         1.30089
   H       -5.64396       -17.26184        -1.09373
   H       -5.98108       -18.73282        -3.04077
   H       -4.17914       -20.20712        -3.82298
   H       -2.00055       -20.24065        -2.69676
*
