# ORCA input file
# SCF done       -261.374085853149          0.000618177234
! CAM-B3LYP def2-SVP def2/J RIJCOSX Grid4 TightSCF
%maxcore 5000
%tddft
    Mode sTDDFT
    Ethresh 5.0
    maxcore 5000
end

%pal
  nprocs 6
  end
* xyz 0 1
   C       -0.69125        -2.55219         6.99183
   C       -0.05485        -3.65375         7.49944
   C       -0.46168        -4.32781         8.66819
   N       -0.76954        -4.92387         9.59924
   C        1.14541        -4.15972         6.95673
   N        2.15368        -4.55587         6.57834
   C       -1.70642        -1.76482         7.68788
   C       -1.72017        -0.46673         7.14426
   C       -2.55050         0.51620         7.64272
   C       -3.39514         0.19319         8.69799
   C       -3.39625        -1.10004         9.23368
   C       -2.54924        -2.08552         8.73756
  Cl       -4.45829        -1.48674        10.52560
  Cl       -4.44412         1.38921         9.34392
   C       -0.76314        -0.39098         6.01733
   O       -0.47590         0.57338         5.34822
   C       -0.27681        -1.78468         5.83785
   C        0.31339        -2.13542         4.66050
   C        0.46237        -3.40033         4.05471
   S       -0.40131        -4.83523         4.54522
   C        0.27004        -5.75022         3.23722
   C        1.11215        -4.96718         2.46297
   C        1.20580        -3.65878         2.91137
   C       -0.05706        -7.11811         3.05002
   C        0.25067        -7.91977         1.96610
   C       -0.21966        -9.22242         2.09182
   C       -0.89045        -9.45248         3.27940
   S       -0.94160        -8.01339         4.24999
   C       -1.47894       -10.67030         3.71555
   S       -2.07123       -10.86903         5.33591
   C       -2.55708       -12.50670         5.00672
   C       -2.26560       -12.84787         3.69794
   C       -1.65847       -11.82611         2.97687
   C       -3.14139       -13.35391         5.98142
   C       -3.37285       -13.01231         7.26957
   C       -3.92559       -13.88222         8.26914
   C       -4.62284       -13.20537         9.37825
   C       -4.33254       -13.49409        10.71439
   C       -4.94296       -12.81456        11.76042
   C       -5.86472       -11.80583        11.48980
   C       -6.16273       -11.48921        10.16808
   C       -5.54048       -12.18185         9.13515
   F       -5.86621       -11.87471         7.87489
   F       -7.04652       -10.52893         9.89459
   F       -6.45698       -11.15299        12.48741
   F       -4.64679       -13.12395        13.02328
   F       -3.43876       -14.44127        11.01023
   C       -3.79655       -15.25016         8.25277
   C       -2.78526       -15.90818         7.40310
   C       -1.44136       -15.53068         7.45934
   C       -0.46912       -16.17885         6.70897
   C       -0.82476       -17.24133         5.88128
   C       -2.15569       -17.64097         5.81232
   C       -3.11452       -16.97818         6.56929
   F       -4.39279       -17.35544         6.45523
   F       -2.50941       -18.65029         5.01476
   F        0.10185       -17.86609         5.15588
   F        0.80449       -15.79033         6.77934
   F       -1.07202       -14.52288         8.25170
   C       -4.58261       -16.12591         9.07386
   S       -3.94289       -17.66074         9.59391
   C       -5.41576       -18.04462        10.42796
   C       -6.33537       -17.02359        10.29805
   C       -5.86808       -15.94960         9.54468
   C       -5.56836       -19.28564        11.09889
   C       -4.64605       -20.30750        11.20663
   C       -5.12147       -21.41121        11.90746
   C       -6.42154       -21.25984        12.35379
   S       -7.05549       -19.70546        11.89480
   C       -7.20655       -22.20058        13.07000
   S       -8.82772       -21.84963        13.56999
   C       -9.01115       -23.43651        14.27199
   C       -7.84442       -24.17239        14.11280
   C       -6.84123       -23.48558        13.44736
   C      -10.22997       -23.80814        14.87822
   C      -10.48923       -25.04267        15.39759
   C      -11.73252       -25.35994        15.97542
   C      -12.06670       -26.59146        16.47772
   C      -13.33081       -26.97311        17.07437
   C      -14.42238       -26.17288        17.29373
   C      -15.62442       -26.61695        17.88487
   N      -16.62874       -26.90819        18.35831
   C      -14.51599       -24.80214        16.97358
   N      -14.67556       -23.68750        16.74715
   C      -13.24462       -28.39150        17.42039
   C      -11.97159       -28.87011        17.06702
   C      -11.17561       -27.77447        16.47250
   O      -10.03379       -27.85621        16.07011
   C      -11.60219       -30.18311        17.27426
   C      -12.52734       -31.04493        17.84959
   C      -13.79737       -30.57808        18.20555
   C      -14.16464       -29.25335        17.99506
  Cl      -14.93289       -31.65326        18.91568
  Cl      -12.10834       -32.68768        18.12237
   H       -2.54213         1.50963         7.22295
   H       -2.57452        -3.07318         9.16886
   H        0.62985        -1.29721         4.04595
   H        1.64090        -5.34739         1.60862
   H        1.81305        -2.90544         2.44205
   H        0.79225        -7.56319         1.10937
   H       -0.06797        -9.98301         1.34833
   H       -2.48873       -13.81757         3.28941
   H       -1.36648       -11.91420         1.94670
   H       -3.42295       -14.33356         5.61972
   H       -3.16535       -11.99578         7.57749
   H       -7.31817       -17.07361        10.73209
   H       -6.46584       -15.08820         9.30685
   H       -3.66063       -20.24142        10.78048
   H       -4.54030       -22.29706        12.08501
   H       -7.73674       -25.17842        14.47472
   H       -5.87370       -23.90176        13.23469
   H      -11.00403       -23.05096        14.91314
   H       -9.73760       -25.81524        15.36471
   H      -12.46793       -24.56653        16.00945
   H      -10.61944       -30.52832        16.99442
   H      -15.15238       -28.93247        18.28206
*
