# ORCA input file
# SCF done       -214.817273367372          0.000612754257
! CAM-B3LYP def2-SVP def2/J RIJCOSX Grid4 TightSCF
%maxcore 5000
%tddft
    Mode sTDDFT
    Ethresh 5.0
    maxcore 5000
end

%pal
  nprocs 6
  end
* xyz 0 1
   C        0.76521         1.27684         2.69221
   C       -0.54618         1.58131         2.94726
   C       -1.57114         0.61806         3.02509
   N       -2.43921        -0.13163         3.07848
   C       -0.99797         2.88067         3.25635
   N       -1.40431         3.90260         3.58577
   C        1.33463        -0.06474         2.65164
   C        2.74162         0.03509         2.86184
   C        3.53801        -1.07214         2.91291
   C        2.95607        -2.34908         2.74447
   C        1.55306        -2.45392         2.51928
   C        0.75095        -1.29051         2.47668
   C        0.98657        -3.73334         2.34811
   C        1.76559        -4.85685         2.40032
   C        3.14672        -4.75289         2.62302
   C        3.72895        -3.52601         2.79133
   C        3.11825         1.45657         2.98383
   O        4.20971         1.92142         3.22233
   C        1.87167         2.21508         2.68467
   C        1.92478         3.53121         2.36831
   C        0.92096         4.31110         1.69237
   C        0.76600         5.66768         2.01514
   C       -0.20989         6.40158         1.38813
   C       -0.97242         5.82931         0.35292
   C       -0.79673         4.49844        -0.00291
   C        0.12725         3.74352         0.68589
   C       -1.82488         6.84921        -0.21093
   C       -1.60442         8.05050         0.48303
   C       -0.62287         7.83672         1.61578
   C       -1.42068         7.98003         2.93544
   C       -0.70892         7.49850         4.19230
   C        0.56295         8.80921         1.56129
   C        1.29741         8.75070         0.22671
   C       -2.27045         9.19788         0.12742
   C       -3.17315         9.17335        -0.94764
   C       -3.38187         7.96454        -1.62804
   C       -2.72049         6.80949        -1.27096
   C       -3.88230        10.36052        -1.36037
   N       -3.99179        11.47455        -0.55353
   C       -4.72286        12.41646        -1.20859
   C       -5.26118        13.69912        -1.10782
   C       -5.92173        13.93718        -2.31495
   N       -5.78579        12.83123        -3.13245
   C       -5.06097        11.89022        -2.47470
   C       -4.53649        10.60005        -2.56645
   C       -6.67177        15.06239        -2.75793
   C       -6.87770        16.19442        -2.05227
   C       -7.67465        17.32481        -2.45748
   C       -7.78902        18.41397        -1.57577
   C       -8.57794        19.48662        -1.90642
   C       -9.27476        19.51096        -3.12783
   C       -9.15594        18.45276        -4.01926
   C       -8.36349        17.37774        -3.67937
   C      -10.04816        20.72755        -3.19577
   C       -9.82720        21.46436        -2.01548
   C       -8.85992        20.73897        -1.10899
   C       -9.50624        20.40885         0.24902
   C      -10.78177        19.58613         0.11202
   C       -7.57737        21.56188        -0.88414
   C       -6.88068        21.94081        -2.18539
   C      -10.45982        22.66271        -1.81696
   C      -11.37581        23.13205        -2.77852
   C      -11.55853        22.40591        -3.96472
   C      -10.89669        21.21607        -4.18085
   C      -12.05344        24.36899        -2.51606
   C      -13.30972        24.73801        -2.89010
   C      -13.89826        26.04460        -2.64647
   C      -13.21821        27.19933        -2.35721
   C      -13.83740        28.45031        -2.15803
   N      -14.28209        29.49406        -1.98025
   C      -11.81634        27.31288        -2.25119
   N      -10.68545        27.49480        -2.16469
   C      -15.33682        25.93615        -2.84861
   C      -15.63114        24.61345        -3.28269
   C      -14.38620        23.82560        -3.36306
   O      -14.30227        22.65972        -3.68334
   C      -16.90579        24.20995        -3.55613
   C      -17.96699        25.13032        -3.40426
   C      -17.68222        26.45424        -2.96213
   C      -16.35107        26.84277        -2.68676
   C      -18.74980        27.36168        -2.80619
   C      -20.03650        26.98254        -3.07575
   C      -20.31536        25.67921        -3.51321
   C      -19.30255        24.77318        -3.67436
   H        4.60054        -0.97660         3.08075
   H       -0.30770        -1.39578         2.29631
   H       -0.07787        -3.80820         2.18015
   H        1.32156        -5.83253         2.27101
   H        3.74691        -5.64972         2.66049
   H        4.79201        -3.43991         2.96307
   H        2.85907         4.03319         2.60006
   H        1.39508         6.09866         2.77880
   H       -1.37234         4.06150        -0.80499
   H        0.28527         2.70924         0.41353
   H       -2.34829         7.41259         2.82916
   H       -1.68632         9.03431         3.04799
   H       -0.56960         6.42158         4.16240
   H       -1.31983         7.73354         5.06122
   H        0.25559         7.98435         4.31812
   H        1.26030         8.56938         2.36482
   H        0.19691         9.82432         1.73006
   H        1.68140         7.74928         0.04508
   H        2.13386         9.44595         0.22620
   H        0.62985         9.01351        -0.59109
   H       -2.07547        10.12013         0.65548
   H       -4.08863         7.94031        -2.44216
   H       -2.89922         5.88940        -1.80689
   H       -3.66188        11.53106         0.39346
   H       -5.19791        14.37737        -0.28147
   H       -6.17407        12.75506        -4.05658
   H       -4.59437         9.93042        -3.40030
   H       -7.10587        14.95698        -3.74390
   H       -6.42339        16.27655        -1.07419
   H       -7.25750        18.38813        -0.63477
   H       -9.68284        18.46727        -4.96182
   H       -8.28106        16.55471        -4.37206
   H       -9.73118        21.34423         0.76594
   H       -8.78354        19.85875         0.85550
   H      -11.52408        20.12102        -0.47631
   H      -11.20271        19.38213         1.09399
   H      -10.57560        18.63724        -0.37824
   H       -6.89362        20.97850        -0.26366
   H       -7.83593        22.46941        -0.33456
   H       -6.60174        21.05083        -2.74545
   H       -5.97945        22.51152        -1.97384
   H       -7.53331        22.54822        -2.80847
   H      -10.29793        23.23769        -0.91614
   H      -12.20303        22.80262        -4.73127
   H      -11.04235        20.67121        -5.10112
   H      -11.49865        25.06214        -1.89291
   H      -17.10191        23.20000        -3.88474
   H      -16.16846        27.84966        -2.34630
   H      -18.52977        28.36454        -2.47059
   H      -20.84716        27.68524        -2.95349
   H      -21.33663        25.39663        -3.72117
   H      -19.51104        23.76781        -4.01027
*
