# ORCA input file
# SCF done       -172.696898435924          0.000515853361
! CAM-B3LYP def2-SVP def2/J RIJCOSX Grid4 TightSCF
%maxcore 5000
%tddft
    Mode sTDDFT
    Ethresh 5.0
    maxcore 5000
end

%pal
  nprocs 6
  end
* xyz 0 1
   C        0.56039         5.91446        -4.38588
   C        0.73804         7.06416        -3.65270
   C        0.35281         8.34355        -4.09067
   N        0.02332         9.40454        -4.38369
   C        1.41034         7.08402        -2.41544
   N        2.00072         7.13478        -1.43101
   C        0.20191         5.86377        -5.79957
   C        0.61302         4.60157        -6.31931
   C        0.44924         4.28323        -7.63549
   C       -0.15144         5.22449        -8.50362
   C       -0.57484         6.48218        -7.98645
   C       -0.38626         6.78784        -6.61817
   C       -1.17297         7.41025        -8.86214
   C       -1.34336         7.11412       -10.18724
   C       -0.92663         5.87546       -10.69589
   C       -0.34340         4.95116        -9.87190
   C        1.18834         3.78920        -5.22718
   O        1.68014         2.68410        -5.30185
   C        0.97726         4.59127        -3.99769
   C        1.09379         4.00584        -2.76545
   C        0.51375         4.39746        -1.55125
   C        0.82764         3.94091        -0.27949
   S        2.05310         2.86683         0.28144
   C        1.51266         3.10028         1.94106
   C        2.21834         2.38162         3.03106
   C        0.46709         3.95256         2.03830
   C        0.04492         4.46412         0.77844
   C       -0.94633         5.33146         0.32227
   S       -0.86051         5.47926        -1.41854
   C       -1.92879         6.05869         1.02747
   N       -2.87566         6.80586         0.35579
   C       -3.67468         7.41485         1.26657
   C       -4.77044         8.25262         1.41786
   C       -4.96338         8.39465         2.80035
   N       -4.00955         7.65744         3.47429
   C       -3.21542         7.04319         2.55969
   C       -2.12903         6.19088         2.41082
   C       -5.96849         9.16313         3.42729
   C       -6.11398         9.37764         4.76226
   C       -7.16092        10.15147         5.30880
   C       -7.34218        10.48688         6.64307
   S       -6.44794        10.15469         8.09210
   C       -7.60800        11.07482         9.03267
   C       -7.40855        11.20913        10.49659
   C       -8.60820        11.59438         8.27582
   C       -8.47916        11.27216         6.90177
   C       -9.22611        11.55255         5.73985
   S       -8.45267        10.82181         4.34372
   C      -10.40120        12.29451         5.76545
   C      -11.26659        12.63065         4.74537
   C      -12.48357        13.39390         4.88825
   C      -12.98556        13.96006         6.03703
   C      -14.18442        14.69783         6.09413
   N      -15.15038        15.30823         6.21415
   C      -12.39319        13.89501         7.31264
   N      -11.97525        13.88565         8.38431
   C      -13.11266        13.46785         3.57075
   C      -12.28756        12.77636         2.63789
   C      -11.11010        12.24622         3.34402
   O      -10.19260        11.61054         2.84583
   C      -12.61980        12.66506         1.32000
   C      -13.82201        13.25144         0.86190
   C      -14.65286        13.94593         1.78628
   C      -14.27864        14.04571         3.14773
   C      -15.84970        14.52497         1.31982
   C      -16.21141        14.42278         0.00361
   C      -15.39282        13.73769        -0.90551
   C      -14.22274        13.16480        -0.48516
   H        0.77595         3.32604        -8.01412
   H       -0.72042         7.74496        -6.24842
   H       -1.48928         8.36410        -8.46567
   H       -1.79962         7.83365       -10.85075
   H       -1.06935         5.65705       -11.74378
   H       -0.02009         3.99558       -10.25857
   H        1.63950         3.06685        -2.73730
   H        2.17252         1.30480         2.87078
   H        1.76579         2.61607         3.99132
   H        3.26947         2.66789         3.05638
   H        0.01089         4.20796         2.97581
   H       -2.92802         6.88558        -0.64544
   H       -5.36424         8.72067         0.65942
   H       -3.94193         7.58515         4.47397
   H       -1.53995         5.73489         3.17809
   H       -6.68115         9.62607         2.75838
   H       -5.41222         8.96835         5.47849
   H       -6.48927        11.75578        10.70788
   H       -7.32517        10.22856        10.96425
   H       -8.24495        11.74418        10.93884
   H       -9.40583        12.18728         8.68661
   H      -10.66327        12.64160         6.75623
   H      -11.97620        12.13433         0.63405
   H      -14.93193        14.57717         3.82116
   H      -16.47730        15.05153         2.02394
   H      -17.13118        14.86959        -0.34339
   H      -15.69308        13.66548        -1.94032
   H      -13.58775        12.63554        -1.18086
*
