# ORCA input file
# SCF done       -242.637811059228          0.000714931967
! CAM-B3LYP def2-SVP def2/J RIJCOSX Grid4 TightSCF
%maxcore 5000
%tddft
    Mode sTDDFT
    Ethresh 5.0
    maxcore 5000
end

%pal
  nprocs 6
  end
* xyz 0 1
   C        0.80928         1.96516        -1.68273
   C        0.85764         1.26856        -0.50135
   C        1.79071         0.24836        -0.22156
   N        2.51720        -0.59040         0.07383
   C        0.00563         1.45135         0.60705
   N       -0.63967         1.52702         1.55496
   C        1.70249         1.75696        -2.81681
   C        1.35963         2.67413        -3.84155
   C        2.01643         2.72118        -5.04707
   C        3.06424         1.81918        -5.25463
   C        3.40227         0.90784        -4.22590
   C        2.73770         0.86072        -3.00608
   S        4.72456        -0.11181        -4.69976
   C        4.81073         0.67355        -6.23832
   C        3.89615         1.65489        -6.39776
   C        0.23223         3.50687        -3.39117
   O       -0.30104         4.39706        -4.02495
   C       -0.10990         3.03180        -2.03879
   C       -1.13816         3.48760        -1.26155
   C       -2.08674         4.50310        -1.49533
   C       -3.09563         4.76793        -0.58478
   C       -3.95547         5.80583        -0.96590
   C       -5.09487         6.29521        -0.27820
   C       -5.56840         5.65564         0.92904
   C       -5.64762         4.31751         1.20193
   C       -6.15250         4.03880         2.48646
   C       -6.45454         5.15539         3.20408
   S       -6.13396         6.59094         2.28725
   C       -6.98528         5.25065         4.58849
   C       -5.71566         7.39991        -0.83671
   C       -5.29146         8.00555        -2.04891
   C       -4.20222         7.47344        -2.76723
   C       -3.54337         6.39098        -2.19288
   S       -2.16676         5.57520        -2.87715
   C       -3.80572         8.02843        -4.04563
   C       -4.60911         8.41814        -5.08144
   C       -3.89155         8.91612        -6.18651
   C       -2.54344         8.91706        -5.99846
   S       -2.12901         8.28116        -4.44086
   C       -1.48046         9.37097        -6.93222
   C       -6.07530         9.13417        -2.37725
   C       -7.09448         9.37386        -1.49449
   S       -7.12086         8.20750        -0.18855
   C       -8.06554        10.40629        -1.54399
   S       -9.46352        10.39007        -0.48922
   C      -10.13505        11.85453        -1.14510
   C       -9.29100        12.34752        -2.14109
   C       -8.13862        11.52306        -2.35658
   N       -7.39392        12.09418        -3.34022
   C       -8.03574        13.24494        -3.74041
   N       -7.46661        14.02949        -4.75380
   O       -6.41129        13.62693        -5.22553
   O       -8.04406        15.04385        -5.09396
   C       -9.20412        13.43622        -3.03447
   C      -11.36743        12.36709        -0.68705
   C      -12.19566        11.82260         0.26162
   C      -13.37418        12.56446         0.48168
   C      -14.43799        12.26235         1.36127
   C      -14.46921        11.01092         2.08712
   C      -14.13319         9.76642         1.62903
   C      -14.29445         8.75419         2.59449
   C      -14.74570         9.21717         3.79242
   S      -14.99707        10.93174         3.74467
   C      -15.02418         8.44922         5.03406
   C      -15.44686        13.21231         1.46352
   C      -15.46884        14.39948         0.68846
   C      -14.44928        14.66364        -0.25373
   C      -13.41092        13.74526        -0.30519
   S      -12.01550        13.85574        -1.34616
   C      -14.51582        15.82122        -1.11990
   C      -15.61378        16.34213        -1.74713
   C      -15.32272        17.47656        -2.53058
   C      -14.00922        17.83232        -2.50380
   S      -13.09307        16.75197        -1.50476
   C      -13.34128        18.96618        -3.19373
   C      -16.58044        15.20692         1.00045
   C      -17.41760        14.66387         1.93882
   S      -16.84240        13.10938         2.50385
   C      -18.63279        15.21204         2.46209
   C      -19.19469        16.44096         2.04644
   C      -20.41673        16.93337         2.62259
   N      -20.92832        18.12175         2.20965
   C      -20.30763        18.80316         1.29298
   C      -19.09512        18.30933         0.70801
   N      -18.58363        17.17352         1.08709
   C      -18.37489        19.06870        -0.35573
   C      -20.90107        20.10487         0.87092
   C      -21.10877        16.23206         3.60419
   C      -20.58008        15.01874         4.01945
   C      -19.35079        14.51249         3.45087
   N      -19.01105        13.33450         3.97955
   S      -20.11134        12.91450         5.06760
   N      -21.07923        14.18169         4.94137
   H        1.72794         3.43188        -5.80595
   H        3.03397         0.14564        -2.25720
   H        5.55335         0.34574        -6.93952
   H        3.80031         2.25034        -7.28765
   H       -1.27934         2.99942        -0.30460
   H       -3.18182         4.22932         0.34211
   H       -5.39538         3.55528         0.48663
   H       -6.28484         3.04090         2.86530
   H       -7.14706         4.25479         4.99376
   H       -7.92826         5.79634         4.60267
   H       -6.28440         5.78189         5.23220
   H       -5.67900         8.30497        -5.07117
   H       -4.36157         9.26178        -7.09019
   H       -1.92629         9.74063        -7.85242
   H       -0.80567         8.54950        -7.17133
   H       -0.88827        10.16790        -6.48334
   H       -5.88429         9.74176        -3.24126
   H       -6.50573        11.80700        -3.71914
   H       -9.88664        14.25211        -3.15439
   H      -11.94198        10.92468         0.79570
   H      -13.82530         9.57521         0.61653
   H      -14.08419         7.71657         2.40367
   H      -14.81100         7.39487         4.87507
   H      -16.06835         8.55760         5.32594
   H      -14.40976         8.81244         5.85739
   H      -16.59164        15.89943        -1.68516
   H      -16.06406        18.00712        -3.10234
   H      -14.05799        19.49956        -3.81368
   H      -12.52823        18.60681        -3.82339
   H      -12.91694        19.66156        -2.46950
   H      -16.76497        16.17453         0.57691
   H      -19.01820        19.20517        -1.22399
   H      -17.48124        18.52619        -0.65212
   H      -18.09112        20.05458         0.00956
   H      -21.81300        20.28201         1.43339
   H      -21.12968        20.09041        -0.19367
   H      -20.19979        20.91766         1.05390
   H      -22.01973        16.62874         4.01819
*
