# ORCA input file
# SCF done       -236.000777223275          0.000768116776
! CAM-B3LYP def2-SVP def2/J RIJCOSX Grid4 TightSCF
%maxcore 5000
%tddft
    Mode sTDDFT
    Ethresh 5.0
    maxcore 5000
end

%pal
  nprocs 6
  end
* xyz 0 1
   C       -3.85021        -2.15335         0.36541
   C       -4.50878        -2.10198         1.57145
   C       -4.56154        -3.16901         2.49122
   N       -4.64626        -3.99018         3.29007
   C       -5.24793        -1.01228         2.07214
   N       -5.87052        -0.17575         2.55783
   C       -3.13868        -3.32149        -0.14115
   C       -2.68989        -3.03932        -1.45371
   C       -1.97837        -3.94333        -2.20357
   C       -1.68944        -5.18540        -1.62903
   C       -2.13866        -5.45701        -0.31585
   C       -2.86299        -4.54363         0.44146
   S       -1.66176        -7.04635         0.19570
   C       -0.88170        -7.32694        -1.32264
   C       -0.97012        -6.28476        -2.17738
   C       -3.09349        -1.66940        -1.82863
   O       -2.88227        -1.14378        -2.90432
   C       -3.76855        -1.11132        -0.63980
   C       -4.18498         0.17987        -0.42271
   C       -4.20585         1.31804        -1.24010
   N       -4.60892         2.52030        -0.66609
   C       -4.55705         3.48796        -1.60556
   C       -4.75140         4.84623        -1.83195
   C       -4.44141         5.06252        -3.17940
   N       -4.07641         3.87043        -3.76576
   C       -4.12213         2.88929        -2.82217
   C       -3.90214         1.54167        -2.59803
   C       -4.45728         6.27720        -3.92157
   C       -4.63318         7.49323        -3.35792
   C       -4.64744         8.74009        -4.04620
   C       -4.70259         9.02130        -5.38358
   C       -4.69671        10.40565        -5.68074
   C       -4.81112        11.03246        -6.94046
   C       -4.86648        10.28818        -8.18217
   C       -5.59965        10.57198        -9.29841
   C       -5.35598         9.67226       -10.35889
   C       -4.43564         8.70487       -10.08160
   S       -3.85580         8.89336        -8.46073
   C       -3.94012         7.61017       -10.95374
  Cl       -6.16261         9.80251       -11.87479
   C       -4.85258        12.42431        -6.94176
   C       -4.75126        13.20745        -5.76518
   C       -4.65071        12.58525        -4.50668
   C       -4.62972        11.19522        -4.50455
   S       -4.58198        10.20142        -3.08023
   C       -4.60198        13.33285        -3.26646
   C       -3.86277        13.06023        -2.15144
   C       -4.11372        13.96341        -1.09602
   C       -5.04528        14.91920        -1.37806
   S       -5.62848        14.71603        -2.99487
   C       -5.55403        16.01171        -0.51117
  Cl       -3.30210        13.85143         0.41871
   C       -4.72973        14.59278        -6.05161
   C       -4.84739        14.88317        -7.37809
   S       -4.97408        13.43784        -8.35767
   C       -4.90125        16.18276        -7.96250
   C       -5.26058        16.52700        -9.23418
   C       -5.25734        17.92461        -9.45520
   C       -4.86062        18.63793        -8.31003
   S       -4.51792        17.58151        -6.97572
   C       -4.78963        20.02399        -8.24950
   O       -4.39778        20.53002        -7.05487
   C       -4.78703        21.82335        -6.64532
   C       -5.11647        20.71808        -9.42907
   C       -5.58193        19.99636       -10.57627
   C       -5.65805        18.61505       -10.62145
   O       -6.06820        17.81073       -11.63314
   C       -6.68123        18.34710       -12.78120
   S       -6.00147        21.11074       -11.86621
   C       -5.53211        22.49185       -10.90041
   C       -5.05418        22.10922        -9.67914
   C       -5.62929        23.82559       -11.38478
   C       -6.53583        24.32396       -12.26318
   C       -7.77560        23.77042       -12.76724
   C       -8.60688        22.91968       -12.08403
   C       -9.82408        22.42881       -12.59440
   N      -10.80830        21.97727       -12.97592
   C       -8.37935        22.53121       -10.74789
   N       -8.25899        22.26145        -9.63795
   C       -8.10981        24.49534       -13.98492
   C       -7.24393        25.61530       -14.09703
   C       -6.27693        25.60147       -12.98288
   O       -5.42316        26.41865       -12.72417
   C       -7.35547        26.52866       -15.11759
   C       -8.35590        26.32356       -16.07302
   C       -9.20395        25.19558       -15.95825
   C       -9.09935        24.27468       -14.92244
   S      -10.35904        25.14342       -17.25192
   C       -9.71557        26.60439       -17.91827
   C       -8.68175        27.11205       -17.21269
   H       -1.65136        -3.69758        -3.20210
   H       -3.17793        -4.79884         1.43923
   H       -0.39721        -8.27061        -1.48236
   H       -0.54521        -6.27843        -3.16492
   H       -4.55139         0.38213         0.57710
   H       -4.89652         2.62116         0.29287
   H       -5.08293         5.58728        -1.13433
   H       -3.78645         3.76757        -4.72300
   H       -3.56482         0.78899        -3.27963
   H       -4.29165         6.19771        -4.98760
   H       -4.74530         7.56063        -2.28535
   H       -4.77884         8.25646        -6.13301
   H       -6.31635        11.36893        -9.36288
   H       -4.38246         7.70343       -11.94237
   H       -4.20494         6.63737       -10.53972
   H       -2.85534         7.65212       -11.04431
   H       -3.13829        12.27025        -2.08492
   H       -5.03547        15.99244         0.44406
   H       -6.62321        15.89558        -0.33517
   H       -5.39564        16.98088        -0.98274
   H       -4.62842        15.36115        -5.30776
   H       -5.53652        15.81311        -9.98855
   H       -4.81897        21.78778        -5.55578
   H       -5.77428        22.08889        -7.02896
   H       -4.04856        22.57215        -6.94755
   H       -6.99206        17.48338       -13.36779
   H       -5.98560        18.94919       -13.37214
   H       -7.56146        18.94402       -12.52821
   H       -4.69794        22.83916        -8.97792
   H       -4.85788        24.51418       -11.05434
   H       -6.69315        27.37851       -15.17480
   H       -9.76398        23.42771       -14.87311
   H      -10.15937        26.99829       -18.81183
   H       -8.15769        28.01291       -17.47605
*
