# ORCA input file
# SCF done       -318.236444999166          0.000838652686
! CAM-B3LYP def2-SVP def2/J RIJCOSX Grid4 TightSCF
%maxcore 5000
%tddft
    Mode sTDDFT
    Ethresh 5.0
    maxcore 5000
end

%pal
  nprocs 6
  end
* xyz 0 1
   C        6.36378         6.01999         6.79747
   C        5.84774         7.16363         7.34048
   F        5.83229         7.31284         8.67722
   C        5.32783         8.20109         6.55434
   C        5.33609         8.06755         5.19376
   C        5.85690         6.90964         4.58049
   C        6.37862         5.86448         5.39769
   C        6.89555         4.68825         4.80614
   C        6.89307         4.56547         3.44301
   C        6.38792         5.62190         2.63090
   C        5.87600         6.76415         3.17538
   C        6.53761         5.25896         1.20896
   O        6.18210         5.88624         0.23854
   C        7.28565         3.96891         1.21197
   C        7.30677         3.46900         2.57084
   C        7.43632         2.16043         2.95869
   C        7.53042         1.08872         2.04698
   N        7.55190         0.18761         1.33686
   C        7.43064         1.73377         4.30045
   N        7.47745         1.34400         5.37988
   C        7.88542         3.55688         0.06211
   C        8.92586         2.61126        -0.10887
   C        9.82995         2.14668         0.81331
   C       10.75746         1.22297         0.29426
   C       11.76206         0.51762         0.99628
   C       11.90168         0.59779         2.43314
   C       13.04359         0.52918         3.18369
   C       12.78874         0.57114         4.56934
   C       11.46570         0.65526         4.90277
   S       10.50137         0.69498         3.47248
   C       10.85382         0.71722         6.25377
  Cl       14.03946         0.51971         5.74902
   C       12.57956        -0.30766         0.23109
   C       12.41227        -0.48421        -1.16596
   C       11.36500         0.16467        -1.85151
   C       10.57572         1.02602        -1.10039
   S        9.23675         1.95371        -1.70256
   C       11.13826        -0.08208        -3.26110
   C       11.21023        -1.27304        -3.92618
   C       10.96372        -1.13800        -5.30920
   C       10.70174         0.13763        -5.71637
   S       10.75133         1.21359        -4.36028
   C       10.39981         0.63713        -7.08134
  Cl       11.00562        -2.48560        -6.38058
   C       13.38255        -1.35667        -1.70766
   C       14.23449        -1.87924        -0.77616
   S       13.89024        -1.28758         0.83135
   C       15.28050        -2.81813        -1.02133
   C       15.62752        -3.34149        -2.23383
   C       16.67055        -4.29331        -2.16828
   C       17.22102        -5.04473        -3.22647
   C       16.73748        -4.94687        -4.58866
   C       17.46920        -5.00721        -5.74118
   C       16.67244        -4.91782        -6.90242
   C       15.33371        -4.80024        -6.66401
   S       15.03882        -4.79527        -4.96020
   C       14.21966        -4.69384        -7.63899
  Cl       17.34766        -4.94955        -8.48580
   C       18.25565        -5.91221        -2.88969
   C       18.74210        -6.07190        -1.56747
   C       18.17334        -5.33798        -0.50601
   C       17.15271        -4.45468        -0.84511
   S       16.26351        -3.45777         0.27410
   C       18.59126        -5.50213         0.87124
   C       18.68814        -4.54065         1.83729
   C       19.07070        -5.06116         3.09189
   C       19.25919        -6.41274         3.11000
   S       18.96575        -7.07062         1.53765
   C       19.64263        -7.28341         4.24995
  Cl       19.28220        -4.06263         4.47824
   C       19.79804        -7.01189        -1.50702
   C       20.09037        -7.58792        -2.70974
   S       19.08078        -6.97324        -3.99661
   C       21.08554        -8.57736        -2.96884
   C       22.04882        -9.02146        -2.10782
   C       22.88247       -10.02316        -2.65524
   C       23.95038       -10.69999        -2.02935
   C       24.30518       -10.49413        -0.64050
   C       25.55061       -10.52473        -0.07942
   C       25.52506       -10.37158         1.32335
   C       24.27615       -10.23230         1.85459
   S       23.09138       -10.27872         0.59397
   C       23.88112       -10.05013         3.27392
  Cl       26.96320       -10.36815         2.26908
   C       24.63193       -11.62637        -2.81124
   C       24.27015       -11.94606        -4.14541
   C       23.18221       -11.28972        -4.76046
   C       22.53681       -10.32119        -3.99785
   S       21.17275        -9.37310        -4.52013
   C       22.72498       -11.61283        -6.09487
   C       22.23557       -10.75872        -7.04364
   C       21.81331       -11.42527        -8.21263
   C       21.95485       -12.78305        -8.17187
   S       22.64446       -13.26092        -6.65969
   C       21.61584       -13.78494        -9.21314
  Cl       21.16786       -10.58245        -9.56756
   C       25.12244       -12.92617        -4.69821
   C       26.06725       -13.40221        -3.82732
   S       25.98147       -12.58314        -2.27840
   C       27.08150       -14.34397        -4.14150
   C       27.88958       -15.03624        -3.29863
   C       29.18407       -15.58479        -3.79395
   O       29.51013       -15.74545        -4.94695
   C       29.98931       -15.81204        -2.57789
   C       31.30058       -16.17713        -2.47259
   C       31.88084       -16.30149        -1.19045
   C       31.08761       -16.03961        -0.03490
   C       31.67759       -16.15491         1.23886
   C       32.99188       -16.51739         1.33980
   C       33.78730       -16.78196         0.21644
   C       33.23121       -16.67358        -1.02769
   F       33.55696       -16.62790         2.55567
   C       29.72823       -15.67391        -0.17257
   C       29.18720       -15.56755        -1.42477
   C       27.83319       -15.25203        -1.86680
   C       26.69279       -15.40970        -1.12612
   C       25.40201       -15.40448        -1.69802
   N       24.34840       -15.47259        -2.14800
   C       26.68939       -15.69393         0.25398
   N       26.63962       -15.90890         1.38033
   H        6.75163         5.24021         7.43421
   H        4.93351         9.08007         7.03897
   H        4.94124         8.85290         4.56695
   H        7.28906         3.91555         5.44753
   H        5.48915         7.54781         2.54139
   H        7.56124         4.07547        -0.83502
   H        9.86154         2.51166         1.82315
   H       14.03576         0.48998         2.77449
   H       11.12435        -0.16762         6.82975
   H        9.77048         0.77519         6.17944
   H       11.22143         1.58979         6.79433
   H       11.38435        -2.22087        -3.45133
   H       10.50504        -0.17096        -7.80112
   H       11.07655         1.44619        -7.35249
   H        9.38134         1.02207        -7.13051
   H       13.45671        -1.57546        -2.75535
   H       15.15096        -3.04813        -3.14880
   H       18.54062        -5.07229        -5.77436
   H       14.60473        -4.36623        -8.60241
   H       13.46995        -3.98620        -7.28977
   H       13.73348        -5.66164        -7.77271
   H       18.53261        -3.49214         1.66487
   H       20.13422        -6.68968         5.01737
   H       20.31111        -8.07555         3.91930
   H       18.75946        -7.74904         4.68933
   H       20.32351        -7.26032        -0.60518
   H       22.16560        -8.62646        -1.11712
   H       26.46462       -10.60977        -0.63682
   H       24.75857       -10.13204         3.91042
   H       23.15506       -10.80616         3.57007
   H       23.42824        -9.06986         3.42368
   H       22.20801        -9.69012        -6.94039
   H       21.03946       -13.31069       -10.00379
   H       21.03526       -14.60091        -8.78568
   H       22.52175       -14.20928        -9.64710
   H       25.04079       -13.29314        -5.70474
   H       27.29933       -14.45844        -5.19892
   H       31.88989       -16.36729        -3.35711
   H       31.09446       -15.96221         2.12577
   H       34.81850       -17.06419         0.35791
   H       33.82374       -16.87186        -1.90814
   H       29.14927       -15.47413         0.71550
*
