# ORCA input file
# SCF done       -217.443329940127          0.000937083716
! CAM-B3LYP def2-SVP def2/J RIJCOSX Grid4 TightSCF
%maxcore 5000
%tddft
    Mode sTDDFT
    Ethresh 5.0
    maxcore 5000
end

%pal
  nprocs 6
  end
* xyz 0 1
   C        0.66777         0.68926        -1.98520
   C       -0.49442         1.35728        -1.71705
   F       -1.64580         0.93934        -2.27547
   C       -0.54114         2.47527        -0.87312
   C        0.61459         2.91242        -0.28725
   C        1.84045         2.25821        -0.52438
   C        1.86780         1.13127        -1.39645
   C        3.08682         0.46652        -1.66683
   C        4.23273         0.90508        -1.06341
   C        4.19650         2.01137        -0.16546
   C        3.03820         2.68502         0.09346
   C        5.54306         2.22345         0.39512
   O        5.90763         3.08960         1.15806
   C        6.36722         1.09507        -0.12526
   C        5.61307         0.44148        -1.16851
   C        6.11931        -0.28693        -2.21937
   C        7.50121        -0.45009        -2.43722
   N        8.62134        -0.57731        -2.65501
   C        5.34149        -0.91959        -3.20673
   N        4.77737        -1.51874        -4.00869
   C        7.54968         0.82303         0.50571
   C        8.33837        -0.35022         0.50832
   C        7.91305        -1.58834         0.06695
   C        8.68681        -2.73560         0.04800
   C       10.04748        -2.75169         0.58874
   C       10.66014        -1.66919         1.12099
   S        9.93952        -0.11997         1.20823
   C       10.50392        -4.08282         0.40556
   C        9.52336        -4.84602        -0.24276
   C        9.95064        -6.18221        -0.42855
   C       11.20213        -6.38610         0.05696
   S       11.92274        -4.97883         0.76113
   C        8.38007        -4.00984        -0.49203
   C        7.21260        -4.29874        -1.22987
   C        7.01583        -5.42167        -1.97382
   C        5.89544        -5.68092        -2.79336
   C        4.75182        -4.92217        -3.02830
   C        3.90465        -5.52988        -3.94622
   C        4.40267        -6.76055        -4.42360
   S        5.90362        -7.16613        -3.73455
   C        3.48427        -7.28195        -5.35780
   C        2.40531        -6.38583        -5.49309
   C        2.62698        -5.26518        -4.59442
   C        1.78463        -4.21497        -4.37494
   C        2.02512        -3.22606        -3.40227
   N        2.16116        -2.43286        -2.58490
   C        0.56977        -4.07567        -5.07957
   N       -0.41986        -3.96370        -5.64789
   C        1.44386        -6.82837        -6.40090
   C        1.77563        -8.04995        -6.96039
   S        3.30978        -8.66326        -6.33480
   C        1.06457        -8.82656        -7.91663
   C        1.59561        -9.99772        -8.41326
   C        0.99125       -10.84411        -9.32996
   C       -0.31911       -10.50104        -9.89075
   C       -1.02457        -9.39711        -9.55109
   S       -0.50416        -8.22878        -8.40861
   C       -0.62131       -11.53632       -10.81854
   C        0.42102       -12.46057       -10.84517
   C        0.17480       -13.51259       -11.75312
   C       -1.02262       -13.36110       -12.37888
   S       -1.89546       -11.94736       -11.89597
   C        1.44726       -12.05621        -9.91170
   C        2.63239       -12.78598        -9.73003
   C        3.64752       -12.55655        -8.83467
   C        4.81062       -13.32808        -8.77419
   C        5.90262       -13.07702        -7.97067
   C        6.84427       -14.16549        -7.62848
   O        6.91413       -15.26154        -8.14248
   C        7.64151       -13.65181        -6.49120
   C        8.57946       -14.28932        -5.73382
   C        9.18997       -13.59566        -4.66237
   C        8.80532       -12.25092        -4.39426
   C        9.41060       -11.56595        -3.32341
   C       10.35504       -12.20214        -2.56777
   C       10.74814       -13.52336        -2.81412
   C       10.16790       -14.20341        -3.84964
   F       10.93638       -11.54316        -1.54425
   C        7.83299       -11.61365        -5.20039
   C        7.26765       -12.30153        -6.23782
   C        6.28301       -11.89968        -7.24232
   C        5.97743       -10.58978        -7.54310
   C        5.27306       -10.17147        -8.68779
   N        4.73380        -9.75408        -9.61318
   C        6.41888        -9.48822        -6.78984
   N        6.71432        -8.54578        -6.20071
   H        0.67319        -0.17233        -2.63409
   H       -1.48718         2.96382        -0.70093
   H        0.60156         3.76845         0.37069
   H        3.07143        -0.39119        -2.32003
   H        3.03277         3.52936         0.76644
   H        7.89532         1.62275         1.15516
   H        6.88316        -1.66169        -0.25138
   H       11.66509        -1.70597         1.51126
   H        9.37564        -6.97047        -0.87770
   H       11.76502        -7.29903         0.04833
   H        6.44797        -3.53437        -1.24408
   H        7.78672        -6.17617        -1.99711
   H        4.56506        -3.97059        -2.56606
   H        0.54586        -6.29539        -6.65799
   H        2.58341       -10.23709        -8.05908
   H       -1.98605        -9.17177        -9.98506
   H        0.83822       -14.33723       -11.94014
   H       -1.46471       -14.00478       -13.11406
   H        2.76141       -13.62315       -10.40681
   H        3.55470       -11.76957        -8.10634
   H        4.84733       -14.25487        -9.33621
   H        8.85592       -15.31107        -5.94669
   H        9.13312       -10.54562        -3.10889
   H       11.49810       -13.97528        -2.18454
   H       10.45530       -15.22292        -4.05859
   H        7.55639       -10.59740        -4.96869
*
