# ORCA input file
# SCF done       -212.021518518848          0.000582273071
! CAM-B3LYP def2-SVP def2/J RIJCOSX Grid4 TightSCF
%maxcore 5000
%tddft
    Mode sTDDFT
    Ethresh 5.0
    maxcore 5000
end

%pal
  nprocs 6
  end
* xyz 0 1
   C        7.45602       -11.77162        -9.30186
   C        7.15953       -12.34980       -10.50490
   F        6.12262       -13.20713       -10.59570
   C        7.90468       -12.10252       -11.66487
   C        8.99927       -11.28819       -11.58236
   C        9.38531       -10.71328       -10.35480
   C        8.58943       -10.94055        -9.19445
   C        8.97030       -10.38688        -7.94883
   C       10.14422        -9.68867        -7.85563
   C       10.93974        -9.48018        -9.01793
   C       10.56893        -9.95205       -10.24292
   C       12.15757        -8.74216        -8.64502
   O       13.10575        -8.46160        -9.34124
   C       11.98303        -8.38483        -7.20575
   C       10.83132        -9.09899        -6.70599
   C       10.57426        -9.41683        -5.39524
   C       11.36299        -8.98480        -4.31283
   N       11.99872        -8.67359        -3.40846
   C        9.56097       -10.30458        -4.98615
   N        8.77209       -11.04433        -4.59891
   C       12.89364        -7.52682        -6.66216
   C       12.83126        -6.69233        -5.51668
   C       11.66131        -6.18095        -4.99160
   C       11.61034        -5.22071        -3.99134
   C       12.81937        -4.71338        -3.34345
   C       14.07395        -5.10210        -3.67247
   S       14.41385        -6.21731        -4.92052
   C       12.36793        -3.74589        -2.40552
   C       10.97638        -3.61338        -2.48397
   C       10.49025        -2.65814        -1.56228
   C       11.49646        -2.09889        -0.84112
   S       13.06915        -2.70419        -1.23723
   C       10.48319        -4.52927        -3.47532
   C        9.16834        -4.73603        -3.92546
   C        8.09316        -3.91986        -3.72712
   C        6.82040        -4.19784        -4.26612
   C        5.72043        -3.22625        -4.28778
   N        4.63082        -3.65050        -4.85194
   C        4.89536        -4.93633        -5.22953
   C        6.27327        -5.31677        -4.88148
   C        6.49012        -6.68908        -5.24274
   S        7.88267        -7.57924        -5.23189
   C        5.21627        -7.14511        -5.74173
   C        4.27579        -6.02032        -5.79707
   N        3.08764        -6.41196        -6.34188
   C        3.22652        -7.67136        -6.62208
   C        4.53279        -8.23182        -6.23793
   C        4.85418        -9.62171        -6.25456
   C        4.25038       -10.49650        -7.13149
   C        4.43726       -11.87266        -7.11204
   C        5.13653       -12.52739        -6.00827
   C        5.86901       -11.85012        -5.08834
   S        6.01125       -10.15019        -5.04977
   C        4.89307       -13.91859        -6.18045
   C        4.11708       -14.12725        -7.32617
   C        3.86313       -15.49678        -7.55628
   C        4.43040       -16.27446        -6.59771
   S        5.30066       -15.38724        -5.39025
   C        3.88080       -12.86276        -7.96473
   C        3.37482       -12.68065        -9.26409
   C        3.78416       -11.65323       -10.07517
   C        3.47977       -11.58739       -11.43823
   C        4.17375       -10.90325       -12.41129
   C        3.99142       -11.31957       -13.82094
   O        3.07640       -11.96671       -14.28046
   C        5.19464       -10.83371       -14.53275
   C        5.56578       -11.03519       -15.82938
   C        6.79783       -10.50874       -16.28129
   C        7.61869        -9.77869       -15.37429
   C        8.84818        -9.26117       -15.82855
   C        9.24237        -9.45612       -17.12265
   C        8.42873       -10.17632       -18.01886
   C        7.23134       -10.69241       -17.60815
   F        8.84031       -10.35313       -19.28265
   F       10.41278        -8.96238       -17.55129
   C        7.19965        -9.57553       -14.03891
   C        6.00462       -10.09776       -13.62304
   C        5.31101       -10.02574       -12.33635
   C        5.65430        -9.16060       -11.32042
   C        4.79646        -8.80287       -10.26614
   N        4.11511        -8.42127        -9.42245
   C        6.87826        -8.47304       -11.24456
   N        7.88483        -7.94113       -11.08430
   H        6.85195       -11.98282        -8.43250
   H        7.60829       -12.57177       -12.58993
   H        9.59894       -11.09375       -12.45864
   H        8.33170       -10.54130        -7.09361
   H       11.18523        -9.77132       -11.11023
   H       13.79129        -7.41097        -7.26634
   H       10.73727        -6.50922        -5.44848
   H       14.95029        -4.71224        -3.17883
   H        9.45755        -2.39840        -1.41998
   H       11.41670        -1.35019        -0.07733
   H        9.01041        -5.61494        -4.53407
   H        8.20154        -2.98511        -3.19553
   H        5.78013        -2.22701        -3.89071
   H        2.41932        -8.22593        -7.06384
   H        3.59036       -10.06761        -7.87238
   H        6.45738       -12.34260        -4.33058
   H        3.29221       -15.88690        -8.37877
   H        4.39718       -17.34329        -6.51586
   H        2.76075       -13.46791        -9.68100
   H        4.51412       -10.96556        -9.67953
   H        2.71964       -12.26220       -11.81758
   H        4.92993       -11.58948       -16.50276
   H        9.48089        -8.70215       -15.15671
   H        6.61937       -11.24127       -18.30670
   H        7.83958        -9.01661       -13.37524
*
