# ORCA input file
# SCF done       -222.894605911986          0.000610448238
! CAM-B3LYP def2-SVP def2/J RIJCOSX Grid4 TightSCF
%maxcore 5000
%tddft
    Mode sTDDFT
    Ethresh 5.0
    maxcore 5000
end

%pal
  nprocs 6
  end
* xyz 0 1
   C       16.39114       -17.23474        -4.15077
   C       17.24484       -17.82580        -5.04012
   F       18.10240       -18.76975        -4.60819
   C       17.26706       -17.48714        -6.39931
   C       16.40399       -16.52984        -6.85565
   C       15.50361       -15.88687        -5.98231
   C       15.49506       -16.24740        -4.60353
   C       14.59561       -15.62039        -3.70871
   C       13.74277       -14.66110        -4.18013
   C       13.76599       -14.29315        -5.55668
   C       14.61424       -14.88950        -6.44328
   C       12.78474       -13.21406        -5.78844
   O       12.48866       -12.68993        -6.83941
   C       12.27787       -12.85577        -4.43817
   C       12.70670       -13.87594        -3.51467
   C       12.06684       -14.22593        -2.35047
   C       10.86862       -13.61462        -1.93045
   N        9.86422       -13.16679        -1.59879
   C       12.47307       -15.28964        -1.52393
   N       12.78255       -16.13522        -0.81126
   C       11.61479       -11.67260        -4.26771
   C       11.43739       -10.88546        -3.10586
   C       10.53321        -9.84033        -3.09678
   C       10.30903        -8.98905        -2.02604
   C       11.07112        -9.11131        -0.77995
   C       12.04057       -10.02952        -0.57502
   S       12.50945       -11.19428        -1.73790
   C       10.58286        -8.07502         0.05968
   C        9.59942        -7.33661        -0.61076
   C        9.07278        -6.31014         0.20840
   C        9.66028        -6.29056         1.43206
   S       10.87017        -7.51039         1.65317
   C        9.41908        -7.89366        -1.92227
   C        8.55335        -7.46565        -2.95487
   C        7.88904        -6.28479        -3.01673
   C        7.05503        -5.91729        -4.10571
   C        6.47991        -4.68855        -4.31237
   C        5.72249        -4.59253        -5.50597
   C        5.72517        -5.83356        -6.19695
   S        6.66741        -7.04684        -5.38697
   C        5.07624        -6.10986        -7.39269
   O        5.25276        -7.38462        -7.82842
   C        4.63396        -7.85960        -8.99683
   C        4.35189        -5.05345        -7.97644
   C        4.36966        -3.80673        -7.29590
   C        5.01853        -3.52791        -6.10291
   O        4.90553        -2.23375        -5.70404
   C        5.27335        -1.84031        -4.40541
   S        3.44845        -2.58734        -8.11913
   C        3.00578        -3.73964        -9.36629
   C        3.56228        -4.97128        -9.15093
   C        2.10395        -3.35609       -10.40447
   C        1.52895        -2.10805       -10.41935
   C        0.53533        -1.68862       -11.29662
   C        0.18785        -2.50312       -12.46306
   C        0.66547        -3.75009       -12.67914
   S        1.72438        -4.56822       -11.60582
   C       -0.73511        -1.72010       -13.21305
   C       -0.99933        -0.53070       -12.53699
   C       -1.94114         0.27006       -13.21664
   C       -2.35506        -0.31822       -14.37053
   S       -1.63261        -1.86087       -14.67219
   C       -0.24232        -0.50528       -11.30616
   C       -0.43749         0.44348       -10.28976
   C        0.01345         0.33149        -8.99843
   C       -0.28555         1.23004        -7.97640
   C        0.10626         1.13771        -6.65786
   C       -0.03761         2.34320        -5.81095
   O       -0.65410         3.35272        -6.08208
   C        0.76069         2.07801        -4.59828
   C        1.03462         2.90684        -3.55056
   C        1.87335         2.44800        -2.50920
   C        2.41105         1.13160        -2.58324
   C        3.25637         0.68077        -1.55097
   C        3.53806         1.51115        -0.50259
   C        3.01596         2.80724        -0.40908
   C        2.19487         3.26134        -1.40418
   F        4.34980         1.07830         0.48347
   C        2.09700         0.29221        -3.67827
   C        1.28060         0.75576        -4.67300
   C        0.78505         0.11865        -5.89950
   C        0.87131        -1.23832        -6.12397
   C        0.24789        -1.99161        -7.13739
   N       -0.22690        -2.72024        -7.89075
   C        1.55642        -2.13791        -5.28094
   N        2.09905        -2.94064        -4.66198
   H       16.39958       -17.52340        -3.11139
   H       17.96254       -17.98740        -7.05438
   H       16.40235       -16.25136        -7.89878
   H       14.61130       -15.90713        -2.66894
   H       14.61009       -14.60395        -7.48456
   H       11.25229       -11.22584        -5.18905
   H        9.94288        -9.71221        -3.99421
   H       12.60161       -10.08999         0.34430
   H        8.29181        -5.62748        -0.07078
   H        9.45626        -5.62312         2.24643
   H        8.43874        -8.14077        -3.79353
   H        8.00954        -5.54401        -2.24020
   H        6.62418        -3.89149        -3.60833
   H        4.93875        -8.90283        -9.07468
   H        4.97905        -7.31916        -9.88330
   H        3.54390        -7.80992        -8.92314
   H        4.93149        -0.80942        -4.31039
   H        6.35933        -1.86377        -4.27273
   H        4.78147        -2.46083        -3.65176
   H        3.37521        -5.78333        -9.82781
   H        1.90689        -1.42041        -9.67927
   H        0.37858        -4.34156       -13.53417
   H       -2.29395         1.22844       -12.88178
   H       -3.05815         0.06214       -15.08546
   H       -1.07757         1.28275       -10.53498
   H        0.60811        -0.51992        -8.73026
   H       -0.82404         2.13858        -8.22604
   H        0.61993         3.90316        -3.51697
   H        3.67252        -0.31416        -1.58639
   H        3.27159         3.41721         0.44270
   H        1.78034         4.25706        -1.35541
   H        2.51880        -0.69865        -3.70059
*
