# ORCA input file
# SCF done       -215.376135301321          0.000694302874
! CAM-B3LYP def2-SVP def2/J RIJCOSX Grid4 TightSCF
%maxcore 5000
%tddft
    Mode sTDDFT
    Ethresh 5.0
    maxcore 5000
end

%pal
  nprocs 6
  end
* xyz 0 1
   C       -4.68389         1.11314         0.22573
   C       -4.25749         1.26230        -1.04392
   C       -2.84429         1.12200        -1.17600
   C       -2.06975         1.19615        -2.34749
   C       -2.68864         1.38587        -3.64627
   C       -3.78982         0.75977        -4.15179
   C       -4.11606         1.20031        -5.45388
   C       -3.28462         2.16050        -5.94996
   S       -2.05215         2.53373        -4.79149
   C       -3.33218         2.84634        -7.26624
  Cl       -5.45900         0.56527        -6.32784
   C       -0.69572         1.06685        -2.19463
   C       -0.06754         0.83036        -0.94685
   C       -0.84455         0.72956         0.22338
   C       -2.22125         0.89296         0.07172
   S       -3.40511         0.80789         1.34953
   C       -0.27004         0.45732         1.52546
   C       -0.64941         0.97082         2.73209
   C        0.08920         0.44064         3.81245
   C        1.02777        -0.48296         3.45906
   S        1.01342        -0.70622         1.74151
   C        1.96650        -1.23953         4.32569
  Cl       -0.18589         0.93351         5.43970
   C        1.34094         0.74421        -1.07828
   C        1.78524         0.87496        -2.36362
   S        0.46807         1.12504        -3.48909
   C        3.12075         0.84375        -2.85592
   N        4.21027         0.63497        -2.03634
   C        5.33382         0.67411        -2.80262
   C        6.72261         0.58186        -2.77306
   C        7.15298         0.76474        -4.09265
   N        6.05530         0.95974        -4.90689
   C        4.93571         0.91327        -4.14071
   C        3.54671         1.01879        -4.17226
   C        8.49293         0.77481        -4.55623
   C        8.87863         0.93715        -5.84660
   C       10.22310         0.98261        -6.29798
   C       11.40607         0.92029        -5.57916
   C       12.52714         1.02705        -6.40145
   C       12.20596         1.16760        -7.75794
   S       10.51961         1.17025        -8.02213
   C       13.41357         1.27872        -8.49993
   C       14.49320         1.21422        -7.60973
   C       13.98184         1.04871        -6.26630
   C       14.70157         0.93524        -5.11117
   C       14.08507         0.77410        -3.85426
   N       13.58735         0.64249        -2.82895
   C       16.11079         0.97274        -5.10068
   N       17.25745         1.00140        -5.08401
   C       15.73624         1.32913        -8.26000
   C       15.58922         1.46151        -9.60896
   S       13.91959         1.46710       -10.11712
   C       16.65898         1.66385       -10.63243
   C       17.08768         3.10203       -10.69073
   N       16.29364         4.11348       -10.42509
   S       17.12416         5.50026       -10.58936
   N       18.53824         4.82500       -11.00865
   C       18.40382         3.51993       -11.02126
   C       19.49135         2.55426       -11.39732
   C       19.19848         1.26466       -10.70175
   C       17.88421         0.84224       -10.36658
   N       17.86995        -0.33825        -9.78980
   S       19.39049        -0.89090        -9.66575
   N       20.11231         0.38366       -10.36573
   C       19.32401         2.38538       -12.87503
   C       20.03462         3.01995       -13.81922
   C       19.80027         2.96449       -15.26173
   C       18.65294         2.53281       -15.86883
   C       18.45152         2.52644       -17.26623
   N       18.23325         2.49909       -18.39222
   C       17.50574         2.08266       -15.18053
   N       16.53733         1.72853       -14.67482
   C       20.95581         3.55262       -15.91470
   C       21.83314         4.06880       -14.92496
   C       21.28655         3.80238       -13.58363
   O       21.76962         4.11616       -12.52160
   C       23.00723         4.70941       -15.24286
   C       23.33412         4.84415       -16.59507
   C       22.45650         4.31707       -17.57562
   C       21.26881         3.67220       -17.25743
   S       23.06513         4.59247       -19.17682
   C       24.45549         5.39603       -18.53613
   C       24.47303         5.45857       -17.18633
   H       -5.68804         1.17264         0.59733
   H       -4.90886         1.48329        -1.86901
   H       -4.32946        -0.01520        -3.63946
   H       -4.19629         2.50164        -7.82870
   H       -2.42996         2.63620        -7.83999
   H       -3.40164         3.92543        -7.13439
   H       -1.40268         1.72583         2.85645
   H        1.87438        -0.89298         5.35199
   H        2.99474        -1.10068         3.99402
   H        1.74483        -2.30625         4.29317
   H        1.99849         0.60401        -0.24083
   H        4.16180         0.47016        -1.04673
   H        7.36201         0.40761        -1.93124
   H        6.09388         1.12476        -5.89670
   H        2.90456         1.20004        -5.01069
   H        9.24312         0.64579        -3.79030
   H        8.13467         1.04826        -6.62437
   H       11.43994         0.80908        -4.51150
   H       16.68981         1.30575        -7.76499
   H       16.25414         1.39037       -11.61937
   H       20.47799         2.95272       -11.15372
   H       18.51175         1.73050       -13.16263
   H       23.65182         5.09536       -14.46854
   H       20.63482         3.28310       -18.03690
   H       25.18691         5.77852       -19.22132
   H       25.25773         5.92029       -16.61504
*
