# ORCA input file
# SCF done       -271.226203905650          0.000619728793
! CAM-B3LYP def2-SVP def2/J RIJCOSX Grid4 TightSCF
%maxcore 5000
%tddft
    Mode sTDDFT
    Ethresh 5.0
    maxcore 5000
end

%pal
  nprocs 6
  end
* xyz 0 1
   C       -3.36680         3.53451        -9.55537
   C       -3.00618         2.22095        -9.73559
   C       -3.44911         1.42048       -10.80774
   N       -3.76727         0.71149       -11.65379
   C       -2.14656         1.47685        -8.90356
   N       -1.45087         0.79983        -8.28745
   C       -4.24309         4.29093       -10.44707
   C       -4.34560         5.62348        -9.95602
   C       -5.10093         6.57078       -10.58248
   C       -5.80763         6.22158       -11.75594
   C       -5.71312         4.89095       -12.25391
   C       -4.91966         3.93165       -11.58148
   C       -6.42296         4.55212       -13.42325
   C       -7.19000         5.48188       -14.07154
   C       -7.28219         6.79210       -13.58024
   C       -6.60541         7.15400       -12.44682
   C       -3.53720         5.74671        -8.73182
   O       -3.39486         6.75570        -8.06027
   C       -2.95422         4.42380        -8.49105
   C       -2.17095         4.07780        -7.41428
   C       -1.71134         4.84327        -6.33903
   C       -0.92888         4.29074        -5.31349
   C       -0.55215         5.18744        -4.33694
   C       -1.05888         6.47569        -4.62425
   S       -1.98384         6.55524        -6.06259
   C       -0.71365         7.47070        -3.68456
   C        0.07467         7.05960        -2.60169
  Si        0.43875         5.22788        -2.74934
   C       -0.29602         4.22852        -1.35837
   C       -0.04078         2.85721        -1.26333
   C       -0.56945         2.09735        -0.23776
   C       -1.36969         2.69185         0.72413
   C       -1.63719         4.04840         0.65104
   C       -1.10764         4.80484        -0.37782
   C        2.24297         4.83845        -3.01557
   C        3.04348         4.38250        -1.96475
   C        4.38071         4.09027        -2.15512
   C        4.95384         4.24726        -3.40612
   C        4.18113         4.69886        -4.46306
   C        2.84448         4.99080        -4.26842
   C        0.36291         8.12243        -1.74855
   C       -0.18419         9.32704        -2.15516
   S       -1.09039         9.15126        -3.63841
   C       -0.06374        10.59366        -1.53144
   C       -0.58054        11.80375        -1.95524
   C       -0.24957        12.87758        -1.12979
   C        0.53629        12.46609        -0.04824
   S        0.85545        10.77507        -0.05350
   C        0.95345        13.49042         0.83392
   C        0.53911        14.78591         0.50472
  Si       -0.50764        14.73110        -1.04797
   C        0.22929        15.60970        -2.51725
   C        1.13677        14.97591        -3.37087
   C        1.66897        15.62985        -4.46600
   C        1.30741        16.93914        -4.73563
   C        0.41188        17.58910        -3.90250
   C       -0.11847        16.93155        -2.80893
   C       -2.27573        15.23076        -0.73254
   C       -2.78786        15.35153         0.56222
   C       -4.10211        15.71827         0.78293
   C       -4.94097        15.97288        -0.28898
   C       -4.45639        15.85901        -1.58157
   C       -3.14171        15.49283        -1.79790
   C        1.02015        15.72096         1.42079
   C        1.78204        15.16952         2.43394
   S        1.91362        13.43270         2.25994
   C        2.42892        15.83286         3.50582
   C        3.15651        15.26702         4.53853
   C        3.68533        16.19731         5.42984
   C        3.35437        17.50645         5.05729
   S        2.38905        17.57444         3.63040
   C        3.86977        18.53211         5.87813
   C        4.64844        18.09830         6.97162
  Si        4.73717        16.22813         6.98065
   C        3.90472        15.44585         8.45170
   C        2.78431        14.62140         8.32315
   C        2.20129        14.02654         9.42668
   C        2.72516        14.24341        10.68978
   C        3.83369        15.06024        10.84237
   C        4.41441        15.65245         9.73741
   C        6.46401        15.58431         6.69545
   C        6.97100        14.50817         7.42733
   C        8.25172        14.03452         7.21222
   C        9.05933        14.62734         6.25641
   C        8.57850        15.69634         5.51802
   C        7.29812        16.16699         5.73576
   C        5.13461        19.16341         7.70884
   C        4.75918        20.41240         7.21929
   S        3.74746        20.23379         5.78122
   C        5.03027        21.72663         7.62453
   C        5.78197        22.23705         8.65696
   C        5.95117        23.66132         8.88568
   C        5.39285        24.69995         8.18055
   C        5.61211        26.06175         8.47463
   N        5.74007        27.19045         8.64634
   C        4.52215        24.60773         7.07543
   N        3.81110        24.65017         6.17279
   C        6.83901        23.83167        10.03263
   C        7.19673        22.54388        10.51623
   C        6.55027        21.50965         9.68870
   O        6.65685        20.30991         9.86361
   C        8.02168        22.37452        11.58961
   C        8.54174        23.51349        12.24426
   C        8.19168        24.80821        11.76603
   C        7.33270        24.94947        10.65119
   C        8.71640        25.93899        12.42404
   C        9.54629        25.79947        13.50306
   C        9.88976        24.52352        13.97349
   C        9.39815        23.40488        13.35715
   H       -5.16049         7.57447       -10.18816
   H       -4.87199         2.93306       -11.98535
   H       -6.34861         3.54162       -13.79784
   H       -7.72996         5.21204       -14.96689
   H       -7.89195         7.51350       -14.10366
   H       -6.67275         8.16182       -12.06337
   H       -1.84779         3.04497        -7.36270
   H       -0.65694         3.24926        -5.31486
   H        0.58680         2.38767        -2.00746
   H       -0.35727         1.03929        -0.18610
   H       -1.78232         2.09971         1.52778
   H       -2.25986         4.51748         1.39919
   H       -1.31983         5.86350        -0.42650
   H        2.60196         4.25216        -0.98673
   H        4.97824         3.73712        -1.32706
   H        5.99814         4.01643        -3.55717
   H        4.62236         4.82056        -5.44170
   H        2.24665         5.33838        -5.09918
   H        0.95690         8.03660        -0.85521
   H       -1.17485        11.88953        -2.84812
   H        1.42048        13.95244        -3.17013
   H        2.36574        15.11713        -5.11328
   H        1.72040        17.45070        -5.59259
   H        0.12559        18.61035        -4.10823
   H       -0.82100        17.44358        -2.16665
   H       -2.13861        15.15793         1.40440
   H       -4.47413        15.80758         1.79336
   H       -5.96802        16.26029        -0.11807
   H       -5.10580        16.05738        -2.42192
   H       -2.76950        15.41035        -2.80929
   H        0.82818        16.77815         1.36115
   H        3.29452        14.20297         4.62281
   H        2.36840        14.44796         7.34096
   H        1.33584        13.39172         9.30206
   H        2.27072        13.77894        11.55269
   H        4.24504        15.23501        11.82591
   H        5.27840        16.28868         9.86406
   H        6.34657        14.04228         8.17659
   H        8.62215        13.20127         7.79172
   H       10.06059        14.25881         6.08784
   H        9.20540        16.16348         4.77231
   H        6.93000        17.00311         5.15756
   H        5.75301        19.06371         8.58154
   H        4.55923        22.46470         6.98623
   H        8.27511        21.38284        11.93440
   H        7.09014        25.94524        10.31715
   H        8.44886        26.91955        12.05815
   H        9.94282        26.67217        14.00030
   H       10.54572        24.43135        14.82643
   H        9.65921        22.41926        13.71456
*
