# ORCA input file
# SCF done       -240.111514324064          0.000854781553
! CAM-B3LYP def2-SVP def2/J RIJCOSX Grid4 TightSCF
%maxcore 5000
%tddft
    Mode sTDDFT
    Ethresh 5.0
    maxcore 5000
end

%pal
  nprocs 6
  end
* xyz 0 1
   C       -3.27753         0.49872        -0.78430
   C       -4.40574         1.16726        -1.19729
   C       -5.18809         0.78360        -2.30240
   N       -5.84347         0.53725        -3.21318
   C       -4.96082         2.25952        -0.50581
   N       -5.47487         3.12437         0.04835
   C       -2.85765        -0.81038        -1.27989
   C       -1.97669        -1.39220        -0.32253
   C       -1.45968        -2.64322        -0.49078
   C       -1.79701        -3.37893        -1.65037
   C       -2.66223        -2.79579        -2.61960
   C       -3.18884        -1.49874        -2.41456
   C       -2.98754        -3.53732        -3.77297
   C       -2.48744        -4.79733        -3.96013
   C       -1.63691        -5.37164        -3.00436
   C       -1.29886        -4.67714        -1.87441
   C       -1.75955        -0.43317         0.77730
   O       -1.10622        -0.59258         1.78675
   C       -2.47120         0.80414         0.36944
   C       -2.22046         1.96287         1.05489
   C       -2.41359         3.30184         0.67710
   N       -2.29744         4.31584         1.61438
   C       -2.49312         5.50293         0.99559
   C       -2.58728         6.87657         1.19720
   C       -2.82500         7.43707        -0.06263
   N       -2.85173         6.43783        -1.01324
   C       -2.67516         5.24323        -0.39118
   C       -2.62978         3.87450        -0.59070
   C       -3.05320         8.78786        -0.44002
   C       -3.14992         9.83129         0.41532
   C       -3.45344        11.16573         0.01940
   C       -3.56558        11.69899        -1.23524
   C       -3.96985        13.05327        -1.25311
   C       -4.16554        13.88829        -2.37229
   C       -3.98893        13.43735        -3.73777
   C       -3.47853        14.14818        -4.78623
   C       -3.50816        13.43185        -6.00231
   C       -4.04625        12.18216        -5.91054
   S       -4.52211        11.86601        -4.27576
   C       -4.23334        11.16572        -6.97641
  Cl       -2.91138        14.09879        -7.47360
   C       -4.56992        15.19304        -2.10784
   C       -4.77131        15.70261        -0.80130
   C       -4.53441        14.88031         0.31937
   C       -4.15480        13.56822         0.05590
   S       -3.81526        12.35456         1.25613
   C       -4.66782        15.36238         1.67906
   C       -5.15642        14.69642         2.76613
   C       -5.07514        15.45471         3.95419
   C       -4.52027        16.69136         3.80058
   S       -4.09141        16.94266         2.14224
   C       -4.27332        17.73709         4.82509
  Cl       -5.63555        14.85144         5.46669
   C       -5.28430        17.02225        -0.82229
   C       -5.46708        17.51957        -2.08064
   S       -4.98396        16.37750        -3.31471
   C       -6.01029        18.78474        -2.45357
   C       -6.45175        19.79049        -1.64276
   C       -6.98605        20.89553        -2.34422
   C       -6.94109        20.72480        -3.75263
   S       -6.21969        19.17454        -4.14302
   C       -7.43579        21.69084        -4.61347
   O       -7.46215        21.69273        -5.96210
   C       -6.93088        20.61326        -6.69315
   C       -8.00496        22.83831        -4.00928
   C       -8.04648        23.00979        -2.59586
   C       -7.53038        22.05039        -1.74112
   O       -7.47982        22.05472        -0.38435
   C       -7.96166        23.16289         0.34005
   S       -8.82651        24.52660        -2.21091
   C       -9.09782        24.89468        -3.91490
   C       -8.59134        23.90170        -4.71695
   C       -9.76738        26.10816        -4.18041
   C      -10.21966        26.66278        -5.34633
   C      -10.92015        27.93783        -5.40334
   C      -11.03327        28.87014        -4.40349
   C      -11.72533        30.09199        -4.54077
   N      -12.27066        31.10203        -4.57673
   C      -10.46620        28.79329        -3.11390
   N      -10.03592        28.83437        -2.04902
   C      -11.45209        28.09829        -6.75196
   C      -11.01264        26.99971        -7.54078
   C      -10.20199        26.08874        -6.71378
   O       -9.65156        25.08202        -7.11095
   C      -11.34190        26.87615        -8.85939
   C      -12.15189        27.86446        -9.46172
   C      -12.60636        28.96301        -8.67701
   C      -12.24301        29.06538        -7.31430
   C      -13.41999        29.94039        -9.28545
   C      -13.76705        29.84018       -10.60522
   C      -13.31708        28.75885       -11.37734
   C      -12.52669        27.79202       -10.81759
   H       -0.80251        -3.07049         0.25210
   H       -3.83791        -1.07942        -3.16754
   H       -3.64613        -3.09194        -4.50438
   H       -2.74603        -5.35880        -4.84556
   H       -1.25111        -6.36703        -3.16719
   H       -0.64418        -5.11463        -1.13469
   H       -1.71909         1.81099         2.00745
   H       -2.20613         4.15929         2.60375
   H       -2.50312         7.41495         2.11866
   H       -3.06103         6.58238        -1.98604
   H       -2.69760         3.33917        -1.51640
   H       -3.19272         8.96163        -1.49885
   H       -3.03891         9.66487         1.47668
   H       -3.35301        11.13871        -2.12533
   H       -3.06061        15.13374        -4.70076
   H       -3.95622        11.59076        -7.93782
   H       -5.27131        10.83819        -7.01753
   H       -3.61229        10.29005        -6.78735
   H       -5.59327        13.71619         2.72832
   H       -4.68963        17.42034         5.77808
   H       -4.73267        18.67993         4.53113
   H       -3.20406        17.90934         4.94791
   H       -5.53832        17.57570         0.06146
   H       -6.41353        19.75899        -0.57052
   H       -7.46444        19.68196        -6.48587
   H       -5.86506        20.47460        -6.49367
   H       -7.06981        20.88260        -7.73914
   H       -7.42669        24.07979         0.08084
   H       -7.77658        22.92261         1.38616
   H       -9.03389        23.31061         0.18907
   H       -8.64341        23.92451        -5.78984
   H       -9.97471        26.67235        -3.27815
   H      -10.99018        26.03255        -9.43476
   H      -12.60724        29.90829        -6.74925
   H      -13.76273        30.77205        -8.68733
   H      -14.39027        30.59441       -11.06201
   H      -13.60026        28.69552       -12.41748
   H      -12.17755        26.95641       -11.40669
*
