# ORCA input file
# SCF done       -242.428964148240          0.000628204803
! CAM-B3LYP def2-SVP def2/J RIJCOSX Grid4 TightSCF
%maxcore 5000
%tddft
    Mode sTDDFT
    Ethresh 5.0
    maxcore 5000
end

%pal
  nprocs 6
  end
* xyz 0 1
   C        1.44736         0.99612        -1.58675
   C        0.75733         0.39478        -0.56091
   C        1.28092        -0.63807         0.23941
   N        1.67926        -1.44922         0.94836
   C       -0.57049         0.71979        -0.22655
   N       -1.66723         0.92702         0.04409
   C        2.69424         0.50341        -2.16545
   C        2.85585         1.09064        -3.45456
   C        3.91693         0.78297        -4.25505
   C        4.88968        -0.13120        -3.78930
   C        4.74411        -0.70649        -2.49418
   C        3.62784        -0.37657        -1.69020
   C        5.72574        -1.60917        -2.03843
   C        6.79826        -1.93334        -2.82423
   C        6.93933        -1.36855        -4.10024
   C        6.00515        -0.48659        -4.57236
   C        1.74494         2.02752        -3.70322
   O        1.52111         2.67320        -4.70214
   C        0.97284         2.06543        -2.42971
   C        0.06982         3.07533        -2.24250
   C       -0.49887         3.56973        -1.05678
   S       -1.97075         4.50679        -1.15131
   C       -2.09057         4.69182         0.56819
   C       -1.00465         4.08289         1.17750
   C       -0.09119         3.47055         0.27903
   C        1.01767         2.91770         0.95930
   C        0.90263         3.03985         2.31367
   C        1.79314         2.49280         3.34415
   O        1.63780         2.66298         4.52777
   O        2.76968         1.76536         2.78982
   C        3.66783         1.09117         3.66335
   S       -0.52652         3.88805         2.83086
   C       -3.16598         5.37972         1.18549
   C       -3.29491         5.65353         2.52130
   C       -4.47021         6.36468         2.84238
   C       -4.87360         6.83933         4.10964
   C       -4.13304         6.54614         5.31827
   C       -3.93211         7.35615         6.40081
   C       -3.19564         6.72445         7.42523
   C       -2.83915         5.43444         7.15438
   S       -3.41954         4.97727         5.59155
   C       -2.06725         4.48146         7.98955
  Cl       -2.78684         7.53072         8.89031
   C       -6.04178         7.59299         4.13922
   C       -6.82985         7.85822         2.99084
   C       -6.41869         7.39231         1.72401
   C       -5.24764         6.64622         1.68958
   S       -4.50896         5.99790         0.25148
   C       -7.17571         7.70411         0.52915
   C       -7.74627         8.89642         0.18490
   C       -8.40742         8.84379        -1.06099
   C       -8.35666         7.62514        -1.67429
   S       -7.46177         6.50635        -0.70310
   C       -8.95055         7.21150        -2.96997
  Cl       -9.20389        10.21363        -1.73557
   C       -8.01434         8.56094         3.31104
   C       -8.12953         8.86404         4.64009
   S       -6.76760         8.27377         5.56824
   C       -9.17850         9.58786         5.27434
   C      -10.37494         9.99248         4.71035
   C      -11.15912        10.70741         5.61513
   C      -10.54990        10.85361         6.87423
   S       -9.02187        10.09472         6.94527
   C      -11.40362        11.60683         7.71737
   C      -12.56743        11.93080         6.97961
   C      -12.45098        11.37342         5.64080
   C      -13.35328        11.45757         4.62160
   C      -13.11327        10.86749         3.36273
   N      -12.91438        10.38210         2.34303
   C      -14.58185        12.13895         4.75341
   N      -15.58047        12.69407         4.84659
   C      -13.46194        12.67979         7.71939
   C      -12.99397        12.95465         9.01034
   S      -11.40422        12.24463         9.29558
   C      -13.74709        13.71042         9.92256
   C      -13.43430        14.14284        11.18541
   C      -14.28260        14.94338        12.05030
   C      -15.59589        15.27907        11.84644
   C      -16.36055        16.05332        12.74448
   N      -17.03900        16.67802        13.42818
   C      -16.38291        14.89183        10.74174
   N      -17.08984        14.60943         9.88164
   C      -13.49261        15.30861        13.22266
   C      -12.20932        14.69984        13.11250
   C      -12.14603        13.93921        11.85841
   O      -11.20069        13.27979        11.45614
   C      -11.24584        14.86016        14.06593
   C      -11.52513        15.65957        15.19690
   C      -12.80373        16.27691        15.31399
   C      -13.78279        16.08775        14.31064
   C      -13.06986        17.07675        16.44352
   C      -12.12002        17.25921        17.41191
   C      -10.86179        16.65039        17.29575
   C      -10.57072        15.86694        16.21176
   H        4.01524         1.23120        -5.23255
   H        3.54458        -0.82229        -0.71119
   H        5.61113        -2.04444        -1.05643
   H        7.54358        -2.62797        -2.46667
   H        7.79143        -1.63534        -4.70733
   H        6.10849        -0.04815        -5.55418
   H       -0.20933         3.59968        -3.15217
   H        1.87725         2.47277         0.49590
   H        4.67512         1.46246         3.47344
   H        3.61271         0.02588         3.43913
   H        3.38739         1.27621         4.70157
   H       -2.55039         5.37327         3.24101
   H       -4.25408         8.37903         6.46149
   H       -1.71983         4.98033         8.89080
   H       -1.20864         4.09977         7.43821
   H       -2.68661         3.63078         8.27373
   H       -7.66368         9.79505         0.76791
   H       -9.75730         6.49595        -2.81073
   H       -8.20098         6.73660        -3.60092
   H       -9.35165         8.08150        -3.48382
   H       -8.76134         8.81808         2.58436
   H      -10.65425         9.76838         3.69785
   H      -14.41629        13.03251         7.36980
   H      -14.71446        14.00048         9.53004
   H      -10.28192        14.38540        13.95756
   H      -14.73887        16.57186        14.42963
   H      -14.04037        17.54303        16.52917
   H      -12.33369        17.87425        18.27319
   H      -10.12410        16.80517        18.06884
   H       -9.60345        15.39554        16.11646
*
