# ORCA input file
# SCF done       -230.383683606462          0.000597762952
! CAM-B3LYP def2-SVP def2/J RIJCOSX Grid4 TightSCF
%maxcore 5000
%tddft
    Mode sTDDFT
    Ethresh 5.0
    maxcore 5000
end

%pal
  nprocs 6
  end
* xyz 0 1
   C       -6.36145        -1.59075        -1.97208
   O       -6.20327        -2.75297        -2.27922
   C       -7.21862        -0.60745        -2.67163
   C       -7.24304         0.60044        -1.95288
   C       -8.00011         1.66287        -2.42487
   C       -8.71480         1.50204        -3.60254
   C       -8.67461         0.29981        -4.29652
   C       -7.92797        -0.77912        -3.84170
  Br       -9.66882         0.12796        -5.90514
   C       -6.39476         0.45999        -0.77206
   C       -6.09882         1.45414         0.12453
   C       -6.63556         2.75702         0.06534
   N       -7.04588         3.82889         0.07259
   C       -5.20467         1.31904         1.20738
   N       -4.47893         1.28501         2.09674
   C       -5.86152        -0.88533        -0.77046
   C       -5.20748        -1.49166         0.27226
   C       -4.53856        -2.72538         0.22717
   S       -4.40748        -3.67091         1.69537
   C       -3.57579        -4.97434         0.90069
   C       -3.36264        -4.64611        -0.42708
   C       -3.88289        -3.38303        -0.81816
   C       -3.53822        -3.06827        -2.15189
   C       -2.84139        -4.07722        -2.74990
   C       -2.33880        -4.07651        -4.12785
   O       -2.44549        -3.14861        -4.88915
   O       -1.74919        -5.24370        -4.41602
   C       -1.20315        -5.40056        -5.71780
   S       -2.54559        -5.45473        -1.72120
   C       -3.22222        -6.15839         1.59292
   C       -3.46074        -6.44855         2.91043
   C       -3.00571        -7.72643         3.29881
   C       -3.09430        -8.33248         4.57139
   C       -3.61172        -7.63580         5.72979
   C       -4.37101        -8.14071         6.74817
   C       -4.64318        -7.18762         7.75176
   C       -4.09270        -5.95774         7.52757
   S       -3.22198        -5.96251         6.03450
   C       -4.15912        -4.74483         8.38023
  Cl       -5.59288        -7.55355         9.13900
   C       -2.63682        -9.64293         4.66207
   C       -2.05704       -10.34434         3.57458
   C       -1.91345        -9.71637         2.31960
   C       -2.42580        -8.42971         2.21098
   S       -2.41320        -7.46662         0.75962
   C       -1.25308       -10.38541         1.21822
   C       -0.12309       -11.15382         1.25916
   C        0.24083       -11.65098        -0.00924
   C       -0.59572       -11.27762        -1.02245
   S       -1.86612       -10.27950        -0.40900
   C       -0.51432       -11.63720        -2.46087
  Cl        1.62575       -12.64324        -0.25847
   C       -1.70021       -11.66546         3.92795
   C       -1.95510       -11.97128         5.23572
   S       -2.66436       -10.62448         6.10181
   C       -1.72692       -13.20748         5.89839
   C       -2.02418       -13.52466         7.21023
   C       -1.67257       -14.83805         7.52058
   C       -1.09824       -15.52200         6.43473
   S       -0.99484       -14.54869         5.03478
   C       -0.76972       -16.83720         6.84644
   C       -1.14558       -16.98440         8.19790
   C       -1.71467       -15.73257         8.66651
   C       -2.15751       -15.45822         9.92664
   C       -2.68613       -14.19944        10.28266
   N       -3.12201       -13.17810        10.56677
   C       -2.10838       -16.43125        10.94754
   N       -2.06389       -17.23641        11.76263
   C       -0.83725       -18.23547         8.71201
   C       -0.22041       -19.05248         7.77392
   S       -0.06181       -18.24764         6.21447
   C        0.22340       -20.38377         7.90830
   C        0.46883       -21.09659         9.04431
   C        0.51125       -22.58259         8.95375
   O        0.56502       -23.24510         7.94507
   C        0.41806       -23.05558        10.35205
   C        0.45017       -21.95124        11.22336
   C        0.63612       -20.73316        10.43595
   C        1.13808       -19.55751        10.92964
   C        1.40213       -19.32760        12.29700
   N        1.63839       -19.09031        13.39414
   C        1.54574       -18.47475        10.12626
   N        1.91585       -17.57944         9.51022
   C        0.33193       -22.14876        12.59092
   C        0.19904       -23.44427        13.06695
   C        0.19064       -24.52297        12.19143
   C        0.29574       -24.34847        10.81762
  Br        0.02273       -26.27977        12.89213
   H       -8.04966         2.60200        -1.89881
   H       -9.30976         2.31772        -3.98369
   H       -7.89377        -1.71608        -4.37561
   H       -5.24201        -1.01812         1.24600
   H       -3.76384        -2.14944        -2.65819
   H       -1.47696        -6.39417        -6.06858
   H       -0.11694        -5.31112        -5.66249
   H       -1.60187        -4.63328        -6.38393
   H       -3.96523        -5.76065         3.56376
   H       -4.76260        -9.14033         6.77403
   H       -5.04924        -4.78228         9.00435
   H       -4.18268        -3.84560         7.76895
   H       -3.28669        -4.68871         9.03280
   H        0.46018       -11.32180         2.14550
   H        0.51696       -11.57106        -2.80418
   H       -1.13493       -10.97165        -3.05458
   H       -0.85424       -12.66178        -2.61770
   H       -1.29540       -12.37971         3.23416
   H       -2.47445       -12.82273         7.88897
   H       -1.08483       -18.56656         9.70394
   H        0.32590       -20.95029         6.98744
   H        0.32716       -21.32276        13.28332
   H        0.10167       -23.61833        14.12750
   H        0.28335       -25.18358        10.13460
*
