# ORCA input file
# SCF done       -276.358858147588          0.000613949988
! CAM-B3LYP def2-SVP def2/J RIJCOSX Grid4 TightSCF
%maxcore 5000
%tddft
    Mode sTDDFT
    Ethresh 5.0
    maxcore 5000
end

%pal
  nprocs 6
  end
* xyz 0 1
   C        1.19478        -0.76779         1.29459
   C        1.69898        -0.59640         2.58491
   N        2.69992         0.41492         2.74976
   O        2.79270         1.26160         1.88579
   O        3.41370         0.37694         3.73762
   C        1.21940        -1.37854         3.64695
   C        1.70687        -1.24980         5.07579
   O        2.96783        -1.83221         5.26657
   C        0.24725        -2.32245         3.36202
   C       -0.25556        -2.52039         2.07249
   C        0.23731        -1.71673         1.03710
   C       -1.26177        -3.52180         1.80832
   C       -1.79683        -4.43585         2.66768
   C       -2.77410        -5.27768         2.08190
   C       -3.52222        -6.29638         2.70547
   C       -3.41955        -6.53587         4.13054
   C       -3.36742        -5.60873         5.13220
   C       -3.27693        -6.19590         6.41264
   C       -3.25424        -7.56055         6.40665
   S       -3.35703        -8.15002         4.78223
   C       -3.15876        -8.49492         7.55593
  Cl       -3.20318        -5.25054         7.85155
   C       -4.37654        -7.02548         1.88757
   C       -4.56181        -6.74519         0.50990
   C       -3.84563        -5.69908        -0.10564
   C       -2.95103        -5.00403         0.70417
   S       -1.94505        -3.67863         0.19988
   C       -4.02720        -5.34203        -1.49813
   C       -3.07684        -4.93114        -2.38874
   C       -3.61211        -4.61567        -3.65642
   C       -4.96473        -4.76481        -3.75234
   S       -5.60483        -5.32019        -2.24302
   C       -5.84880        -4.53401        -4.92257
  Cl       -2.62358        -4.08672        -4.96333
   C       -5.49918        -7.62578        -0.08013
   C       -6.03462        -8.52454         0.79633
   S       -5.38959        -8.34149         2.40938
   C       -7.02348        -9.51436         0.51057
   C       -7.79534        -9.59882        -0.61155
   C       -8.71038       -10.67851        -0.59321
   C       -9.63064       -11.05315        -1.59337
   C       -9.82919       -10.28021        -2.80245
   C      -10.09834       -10.74375        -4.05939
   C      -10.29531        -9.70594        -4.99464
   C      -10.19148        -8.44804        -4.47588
   S       -9.83895        -8.53567        -2.78510
   C      -10.35374        -7.14277        -5.16539
  Cl      -10.63748       -10.01092        -6.65410
   C      -10.36440       -12.21103        -1.35313
   C      -10.22577       -12.99652        -0.18133
   C       -9.31911       -12.61119         0.82599
   C       -8.59174       -11.44775         0.59087
   S       -7.38617       -10.78178         1.65682
   C       -9.12728       -13.37354         2.04277
   C       -8.89553       -12.89442         3.30074
   C       -8.69297       -13.92059         4.24835
   C       -8.75199       -15.18377         3.73640
   S       -9.07593       -15.11682         2.03771
   C       -8.58523       -16.48291         4.43497
  Cl       -8.39483       -13.58660         5.91075
   C      -11.12061       -14.09462        -0.17672
   C      -11.91471       -14.16051        -1.28208
   S      -11.59567       -12.85624        -2.40419
   C      -12.89821       -15.14517        -1.58903
   C      -13.79205       -15.13486        -2.61812
   C      -14.63130       -16.27488        -2.65438
   C      -15.64963       -16.57572        -3.57984
   C      -15.95044       -15.72653        -4.71448
   C      -17.17713       -15.43454        -5.23972
   C      -17.09980       -14.61445        -6.38553
   C      -15.83017       -14.27892        -6.75680
   S      -14.68986       -14.98254        -5.66275
   C      -15.38473       -13.45294        -7.90693
  Cl      -18.50202       -14.08526        -7.23328
   C      -16.35773       -17.75417        -3.35779
   C      -16.06837       -18.64858        -2.29973
   C      -15.01763       -18.36957        -1.40229
   C      -14.35054       -17.16487        -1.58658
   S      -13.04539       -16.57702        -0.59425
   C      -14.63912       -19.31974        -0.37627
   C      -14.53068       -20.67588        -0.49830
   C      -14.11975       -21.29937         0.69948
   C      -13.91797       -20.44091         1.74094
   S      -14.22922       -18.81323         1.23874
   C      -13.48341       -20.74731         3.12693
  Cl      -13.89830       -23.00413         0.81790
   C      -16.94407       -19.76203        -2.29392
   C      -17.84768       -19.76471        -3.31593
   S      -17.66153       -18.35235        -4.33983
   C      -18.87191       -20.73994        -3.60814
   C      -19.76305       -20.53929        -4.66953
   C      -20.73416       -21.46993        -4.94225
   C      -20.85686       -22.62089        -4.16210
   C      -19.97446       -22.85677        -3.09645
   C      -18.99768       -21.90708        -2.84868
   C      -20.03381       -24.08253        -2.20778
   O      -21.08094       -24.01865        -1.27768
   N      -21.90524       -23.52770        -4.52346
   O      -22.37270       -23.43230        -5.63886
   O      -22.28389       -24.34329        -3.69991
   H        1.58386        -0.14288         0.50497
   H        1.02239        -1.79076         5.73412
   H        1.71415        -0.19192         5.37384
   H        3.62461        -1.23464         4.87679
   H       -0.12840        -2.92259         4.17499
   H       -0.13689        -1.84870         0.03347
   H       -1.48948        -4.54169         3.69090
   H       -3.44099        -4.54818         4.97637
   H       -2.24514        -9.08579         7.49560
   H       -4.00283        -9.18337         7.56014
   H       -3.15383        -7.93328         8.48672
   H       -2.02550        -4.88873        -2.17413
   H       -5.27699        -4.08115        -5.72856
   H       -6.67426        -3.87520        -4.65685
   H       -6.26944        -5.47534        -5.27700
   H       -5.75526        -7.61224        -1.12193
   H       -7.70878        -8.90400        -1.42449
   H      -10.11987       -11.78302        -4.32875
   H      -10.09181        -7.24484        -6.21654
   H       -9.72205        -6.38649        -4.70514
   H      -11.38897        -6.80406        -5.10411
   H       -8.90408       -11.85301         3.56278
   H       -8.41608       -16.30890         5.49461
   H       -7.73739       -17.03258         4.02698
   H       -9.47472       -17.10022         4.31361
   H      -11.19595       -14.81000         0.62122
   H      -13.84865       -14.32034        -3.31655
   H      -18.10958       -15.75250        -4.81219
   H      -16.22372       -12.87891        -8.29312
   H      -15.00062       -14.08612        -8.70771
   H      -14.59050       -12.77241        -7.60603
   H      -14.68689       -21.21236        -1.41599
   H      -13.50064       -21.82232         3.28812
   H      -14.13935       -20.26660         3.85064
   H      -12.46989       -20.38399         3.29836
   H      -16.91115       -20.51236        -1.52658
   H      -19.68585       -19.64650        -5.27096
   H      -21.42837       -21.32599        -5.75638
   H      -18.31345       -22.08600        -2.03496
   H      -19.11313       -24.14143        -1.62163
   H      -20.11255       -24.98819        -2.82549
   H      -21.90517       -24.19488        -1.75732
*
