# ORCA input file
# SCF done       -169.980546250487          0.000839443913
! CAM-B3LYP def2-SVP def2/J RIJCOSX Grid4 TightSCF
%maxcore 5000
%tddft
    Mode sTDDFT
    Ethresh 5.0
    maxcore 5000
end

%pal
  nprocs 6
  end
* xyz 0 1
   C       -2.47084        -0.35824         0.89563
   C       -1.38363        -0.45011         0.03667
   C       -0.57627        -1.64960        -0.06675
   N        0.50189        -1.64201        -0.85408
   C        0.79239        -0.57500        -1.56181
   C       -0.04354         0.59029        -1.50517
   N       -1.08267         0.63097        -0.71763
   C        0.27006         1.71321        -2.31450
   N        0.56356         2.59318        -2.98583
   C        1.92828        -0.60821        -2.40569
   N        2.82742        -0.62214        -3.11670
   C       -0.88039        -2.81545         0.69032
   C       -1.97424        -2.67820         1.57864
   C       -2.76205        -1.47027         1.67541
   N       -3.74097        -1.59275         2.58115
   S       -3.67524        -3.05281         3.23088
   N       -2.41484        -3.61910         2.41175
   C       -0.15321        -4.03577         0.67070
   S       -0.38190        -5.14391         2.00329
   C        0.84618        -6.23853         1.43593
   C        1.35595        -5.78261         0.22897
   C        0.79452        -4.55729        -0.22591
   C        1.30933        -4.20205        -1.49317
   C        2.24375        -5.08223        -1.94869
   C        3.03816        -4.98262        -3.17954
   O        3.89500        -5.77099        -3.49563
   O        2.69372        -3.89453        -3.87289
   C        3.43938        -3.59040        -5.04531
   S        2.53385        -6.41847        -0.87085
   C        1.18747        -7.39421         2.18881
   C        2.22122        -8.27050         1.86943
   C        2.55939        -9.37389         2.64957
   C        1.89502        -9.72372         3.82110
   C        0.81115        -8.86972         4.17107
   C        0.47069        -7.71941         3.37290
   N       -0.55402        -7.13014         3.95112
   O       -0.84508        -7.84872         5.03062
   N       -0.03414        -8.90132         5.18299
   C        2.25146       -10.82815         4.64741
   N        1.52099       -11.13502         5.77249
   C        2.09464       -12.20568         6.37634
   C        1.99023       -13.08364         7.44116
   C        3.08673       -13.96322         7.32707
   N        3.83434       -13.63159         6.21299
   C        3.23518       -12.58306         5.60242
   C        3.32506       -11.72305         4.51642
   C        3.41967       -15.03069         8.18205
   C        4.63446       -15.66111         8.16133
   C        4.90853       -16.84389         8.85452
   C        6.03781       -17.62306         8.78125
   C        6.20442       -18.69392         9.79351
   O        5.37634       -19.07451        10.59014
   C        7.59809       -19.16573         9.64435
   C        8.19778       -18.49496         8.56410
   C        7.20607       -17.61287         7.93592
   C        7.38164       -17.05461         6.68924
   C        6.45689       -16.30704         5.94237
   N        5.78300       -15.67640         5.25329
   C        8.55607       -17.20459         5.91867
   N        9.47228       -17.27324         5.23037
   C        9.53226       -18.73531         8.27197
   C       10.23422       -19.64866         9.04524
   C        9.61357       -20.31441        10.09287
   C        8.28299       -20.08061        10.41513
  Br       10.61260       -21.56462        11.11672
   H       -3.04896         0.54754         0.95147
   H        1.02335        -3.33827        -2.05735
   H        3.67062        -2.52688        -5.00449
   H        2.82797        -3.80912        -5.92229
   H        4.35260        -4.18727        -5.07358
   H        2.80167        -8.08171         0.98054
   H        3.38520        -9.98620         2.32514
   H        0.71382       -10.60272         6.06392
   H        1.26259       -13.10088         8.22732
   H        4.56992       -14.21112         5.82094
   H        4.05928       -11.72401         3.73757
   H        2.65057       -15.37265         8.86114
   H        5.42559       -15.22345         7.57724
   H        4.16211       -17.20113         9.55703
   H       10.04190       -18.22519         7.47170
   H       11.27390       -19.84284         8.83086
   H        7.79654       -20.58685        11.23436
*
