# ORCA input file
# SCF done       -213.636330613101          0.000279597007
! CAM-B3LYP def2-SVP def2/J RIJCOSX Grid4 TightSCF
%maxcore 5000
%tddft
    Mode sTDDFT
    Ethresh 5.0
    maxcore 5000
end

%pal
  nprocs 6
  end
* xyz 0 1
   C       -2.80256        -1.01934        -0.40963
   C       -3.21775        -2.16209        -1.03701
   C       -2.40294        -3.29732        -1.23713
   N       -1.79128        -4.24997        -1.42479
   C       -4.50140        -2.35770        -1.59084
   N       -5.51832        -2.58053        -2.07419
   C       -1.46836        -0.75747         0.10541
   C       -1.40985         0.57537         0.58971
   C       -0.26908         1.11598         1.13462
   C        0.86956         0.30894         1.20090
   C        0.80250        -1.02136         0.71666
   C       -0.35035        -1.57023         0.16997
   S        2.32379        -1.83427         0.90250
   C        3.02210        -0.41856         1.60880
   C        2.16303         0.61980         1.70594
   C       -2.71797         1.22291         0.42339
   O       -3.04181         2.32726         0.79581
   C       -3.59862         0.18556        -0.20450
   C       -4.92448         0.34372        -0.38736
   C       -5.59971         1.62645        -0.25389
   C       -5.14864         2.77253        -0.91343
   F       -4.09679         2.68721        -1.73561
   C       -5.80117         3.98566        -0.77458
   F       -5.31387         5.05267        -1.42534
   C       -6.92496         4.13106         0.04400
   C       -7.38394         2.97827         0.68472
   C       -6.75100         1.75603         0.52333
   F       -7.22669         0.67547         1.15816
   F       -8.48157         3.03706         1.45331
   C       -7.57230         5.43649         0.23153
   C       -7.83606         6.25186        -0.87364
   C       -8.39679         7.49203        -0.67409
   C       -8.73560         7.91372         0.62344
   C       -8.48553         7.10319         1.71964
   C       -7.89884         5.86894         1.51744
   C       -9.35846         9.21830         0.53718
   C       -9.40915         9.59780        -0.81289
   C       -8.75313         8.55296        -1.68983
   C       -7.49360         9.20636        -2.30686
   C       -6.58095         8.28211        -3.10198
   C       -9.70726         8.02450        -2.77114
   C      -11.01570         7.50512        -2.18586
   C       -9.96163        10.80094        -1.17832
   C      -10.47531        11.65569        -0.19467
   C      -10.42674        11.25988         1.14761
   C       -9.87437        10.05085         1.51890
   C      -11.03473        12.93499        -0.57278
   C      -11.33797        13.99623         0.22071
   C      -11.85634        15.13236        -0.46213
   C      -11.97139        14.88670        -1.86713
   S      -11.38269        13.27875        -2.25009
   C      -12.48928        15.81212        -2.75958
   O      -12.65755        15.71196        -4.10624
   C      -12.34104        14.52572        -4.79136
   C      -12.90377        17.04459        -2.21603
   C      -12.76724        17.29314        -0.84103
   C      -12.24687        16.37446         0.06225
   O      -12.21812        16.80955         1.35539
   C      -11.31734        16.27552         2.29403
   S      -13.32135        18.88231        -0.42267
   C      -13.73292        19.21906        -2.09952
   C      -13.45400        18.15516        -2.90458
   C      -14.28557        20.50754        -2.45730
   C      -14.54575        21.45643        -1.45966
   C      -15.06118        22.68155        -1.80293
   C      -15.33088        22.99408        -3.14465
   C      -15.07984        22.06267        -4.13989
   C      -14.56078        20.83080        -3.79135
   C      -15.85751        24.34540        -3.20592
   C      -15.91041        24.86054        -1.90126
   C      -15.41110        23.84265        -0.90284
   C      -16.50940        23.45693         0.10542
   C      -17.77384        22.93801        -0.56848
   C      -14.17336        24.35570        -0.14401
   C      -13.03138        24.74755        -1.07383
   C      -16.37448        26.13830        -1.67528
   C      -16.78692        26.90283        -2.75909
   C      -16.73507        26.39408        -4.04767
   C      -16.27002        25.11060        -4.28438
   H       -0.25865         2.13327         1.49394
   H       -0.35257        -2.58919        -0.17949
   H        4.05020        -0.45177         1.91318
   H        2.42071         1.57839         2.11840
   H       -5.56160        -0.49985        -0.61865
   H       -7.62343         5.88976        -1.86689
   H       -8.74295         7.42677         2.71655
   H       -7.67749         5.23680         2.36347
   H       -6.91616         9.65236        -1.49267
   H       -7.83040        10.01906        -2.95469
   H       -6.13492         7.52541        -2.46348
   H       -5.77477         8.86721        -3.53943
   H       -7.11697         7.79406        -3.91162
   H       -9.21688         7.21802        -3.31749
   H       -9.91929         8.83023        -3.47707
   H      -10.82735         6.69913        -1.47975
   H      -11.65644         7.12559        -2.97849
   H      -11.54656         8.29883        -1.66493
   H      -10.00380        11.10317        -2.21497
   H      -10.83899        11.90493         1.90785
   H       -9.84717         9.76132         2.55865
   H      -11.19213        13.96170         1.28207
   H      -12.59850        14.72029        -5.83209
   H      -12.92825        13.67764        -4.42938
   H      -11.27585        14.28840        -4.72428
   H      -11.19401        17.04951         3.05270
   H      -10.34542        16.05352         1.84602
   H      -11.72418        15.37974         2.77475
   H      -13.62480        18.12935        -3.96424
   H      -14.33539        21.21025        -0.42883
   H      -15.28340        22.29302        -5.17515
   H      -14.36012        20.10629        -4.56472
   H      -16.75387        24.33386         0.70891
   H      -16.11450        22.68929         0.77430
   H      -18.19476        23.69317        -1.22878
   H      -18.51912        22.68090         0.18087
   H      -17.55699        22.04986        -1.15779
   H      -13.83302        23.57341         0.53776
   H      -14.46486        25.22011         0.45663
   H      -12.70636        23.89272        -1.66267
   H      -12.18448        25.10949        -0.49516
   H      -13.34474        25.53470        -1.75622
   H      -16.41959        26.54520        -0.67531
   H      -17.15263        27.90623        -2.59604
   H      -17.06123        27.00674        -4.87567
   H      -16.23044        24.71659        -5.28913
*
