# ORCA input file
# SCF done       -223.433445574585          0.000574025997
! CAM-B3LYP def2-SVP def2/J RIJCOSX Grid4 TightSCF
%maxcore 5000
%tddft
    Mode sTDDFT
    Ethresh 5.0
    maxcore 5000
end

%pal
  nprocs 6
  end
* xyz 0 1
   C       -7.75370       -11.18798        -6.58746
   C       -7.72008       -10.39705        -5.50715
   C       -8.81578        -9.69851        -4.89610
   C       -8.48063        -8.97587        -3.80629
   C       -7.10047        -9.03897        -3.45865
   S       -6.23897       -10.06358        -4.59535
   C       -6.47841        -8.42435        -2.40398
   C       -7.06006        -7.58637        -1.41537
   C       -6.18368        -7.14257        -0.48447
   C       -4.83865        -7.59424        -0.65639
   S       -4.75910        -8.60500        -2.09763
   C       -3.82491        -7.30008         0.20270
   C       -2.44901        -7.70058         0.19600
   C       -1.82552        -8.37534        -0.86303
   C       -0.50249        -8.74526        -0.78792
   C        0.26021        -8.47082         0.34945
   C       -0.35443        -7.80181         1.41122
   C       -1.66957        -7.41158         1.32872
   C        1.64980        -8.92471         0.46462
   C        2.00771        -9.51841         1.76454
   C        3.18509        -9.15766         2.41696
   C        3.50078        -9.70310         3.64639
   C        2.64747       -10.61556         4.24503
   C        1.46905       -10.97167         3.61053
   C        1.14705       -10.42292         2.38358
   C        2.54471        -8.81726        -0.54639
   C        3.85733        -9.48222        -0.49802
   C        3.96982       -10.81464        -0.10466
   C        5.20285       -11.43707        -0.08102
   C        6.34293       -10.74178        -0.44982
   C        6.24051        -9.42126        -0.85455
   C        5.00763        -8.79750        -0.88576
   C        2.29006        -8.01953        -1.75328
   C        1.72137        -6.74856        -1.67269
   C        1.54415        -5.98257        -2.80538
   C        1.92137        -6.46017        -4.05990
   C        2.48538        -7.73257        -4.14006
   C        2.67661        -8.49431        -3.00643
   C        1.74595        -5.64144        -5.26530
   C        2.00680        -4.27151        -5.24489
   C        1.86075        -3.50476        -6.38147
   C        1.44182        -4.08164        -7.58031
   C        1.15641        -5.44681        -7.59560
   C        1.31678        -6.21476        -6.46123
   C        1.24670        -3.27120        -8.79016
   C        0.00589        -3.54651        -9.53215
   C        0.01175        -3.67006       -10.92074
   C       -1.15560        -3.94774       -11.60502
   C       -2.34708        -4.10896       -10.91672
   C       -2.36153        -4.00283        -9.53595
   C       -1.19445        -3.73071        -8.84772
   C        2.13049        -2.32630        -9.19637
   C        1.79562        -1.36608       -10.26425
   C        0.58101        -0.68330       -10.25363
   C        0.28440         0.23544       -11.24193
   C        1.19448         0.48850       -12.25516
   C        2.40874        -0.17741       -12.26930
   C        2.71072        -1.09298       -11.27894
   C        3.46728        -2.17481        -8.61921
   C        4.24954        -3.28109        -8.27057
   C        5.51429        -3.11541        -7.76215
   C        6.08113        -1.83803        -7.60357
   C        5.29181        -0.73352        -7.95615
   C        4.01969        -0.90134        -8.45032
   C        7.41490        -1.73910        -7.09734
   C        8.28693        -0.68826        -7.12765
   C        9.60755        -0.72098        -6.59919
   C       10.33403         0.40988        -6.80929
   C        9.64118         1.41186        -7.52122
   S        8.01643         0.87663        -7.88865
   C       10.11261         2.64890        -7.92666
   C       11.38298         3.20992        -7.69914
   C       11.55051         4.44482        -8.26361
   C       10.42685         4.91927        -8.96358
   S        9.12859         3.74488        -8.87303
   C       10.31874         6.11658        -9.65312
   C        9.19457         6.52805       -10.34388
   C        9.09295         7.71100       -11.05717
   C        7.97473         8.16546       -11.78145
   C        8.15677         9.36783       -12.40409
   C        9.43602         9.92635       -12.20192
   S       10.40023         8.87189       -11.18757
   C        9.93234        11.11505       -12.69834
   C        9.26225        12.04901       -13.52924
   C       10.00499        13.12906       -13.87018
   C       11.33109        13.12902       -13.32848
   S       11.56044        11.66594       -12.35772
   C       12.28891        14.05400       -13.49310
   H       -8.67741       -11.36559        -7.10936
   H       -6.86972       -11.66898        -6.96388
   H       -9.80805        -9.77266        -5.30495
   H       -9.17590        -8.39347        -3.22763
   H       -8.10807        -7.34537        -1.42463
   H       -6.44666        -6.50317         0.34040
   H       -4.11335        -6.68784         1.05028
   H       -2.38258        -8.60744        -1.75623
   H       -0.04905        -9.27518        -1.61257
   H        0.22051        -7.57923         2.29933
   H       -2.12216        -6.88521         2.15763
   H        3.84696        -8.43724         1.95900
   H        4.41594        -9.41309         4.14193
   H        2.89780       -11.04362         5.20451
   H        0.79732       -11.67917         4.07490
   H        0.22787       -10.70347         1.88846
   H        3.08159       -11.36374         0.17132
   H        5.27516       -12.47092         0.22399
   H        7.30656       -11.22909        -0.42717
   H        7.12552        -8.87568        -1.14882
   H        4.92965        -7.76600        -1.19988
   H        1.43331        -6.35611        -0.70835
   H        1.09367        -5.00424        -2.72154
   H        2.80246        -8.11515        -5.09946
   H        3.12438        -9.47507        -3.08567
   H        2.34615        -3.80780        -4.33001
   H        2.06332        -2.44415        -6.34541
   H        0.81834        -5.90618        -8.51395
   H        1.08351        -7.26912        -6.49309
   H        0.94080        -3.55966       -11.46036
   H       -1.13583        -4.04221       -12.68103
   H       -3.25931        -4.32264       -11.45404
   H       -3.28611        -4.13482        -8.99277
   H       -1.20862        -3.64562        -7.77014
   H       -0.12549        -0.86881        -9.45784
   H       -0.65988         0.75987       -11.21970
   H        0.96033         1.20607       -13.02769
   H        3.12469         0.01983       -13.05400
   H        3.65874        -1.61238       -11.29204
   H        3.85798        -4.27646        -8.41888
   H        6.10174        -3.98493        -7.50242
   H        5.67204         0.26582        -7.81701
   H        3.42742        -0.03288        -8.70141
   H        7.80980        -2.64849        -6.65859
   H        9.97544        -1.59112        -6.08413
   H       11.34994         0.54501        -6.48357
   H       12.13929         2.69737        -7.13223
   H       12.45512         5.02369        -8.19787
   H       11.18722         6.76344        -9.65175
   H        8.32483         5.88262       -10.34038
   H        7.06577         7.59118       -11.82499
   H        7.40811         9.85908       -12.99921
   H        8.24766        11.88755       -13.84831
   H        9.66574        13.93793       -14.49261
   H       12.10876        14.92928       -14.09171
   H       13.25657        13.95315       -13.03734
*
