# ORCA input file
# SCF done       -155.688413473291          0.000540850942
! CAM-B3LYP def2-SVP def2/J RIJCOSX Grid4 TightSCF
%maxcore 5000
%tddft
    Mode sTDDFT
    Ethresh 5.0
    maxcore 5000
end

%pal
  nprocs 6
  end
* xyz 0 1
   C       23.06016       -20.86715        -0.51117
   C       22.67079       -19.58173        -0.53545
   C       23.39927       -18.43053        -0.10240
   C       22.74419       -17.25328        -0.28594
   C       21.45324       -17.38612        -0.83877
   S       21.09335       -19.06719        -1.15436
   C       20.54543       -16.37009        -1.12111
   C       20.69439       -14.99583        -0.90711
   C       19.57969       -14.26138        -1.25038
   C       18.52117       -15.02519        -1.73766
   S       18.96601       -16.71176        -1.79077
   C       17.24772       -14.55669        -2.10300
   C       16.22257       -15.33320        -2.55118
   C       14.93227       -14.84880        -2.85188
   C       13.83362       -15.57319        -3.28812
   C       12.68288       -14.80960        -3.44819
   C       12.86387       -13.47279        -3.14235
   S       14.50770       -13.16719        -2.65615
   C       11.91237       -12.42289        -3.10520
   C       10.53387       -12.47474        -3.17919
   C        9.92938       -11.23939        -2.95451
   C       10.81609       -10.21585        -2.67157
   S       12.44738       -10.79826        -2.79714
   C       10.45543        -8.86030        -2.40110
   C       11.14234        -7.86899        -1.78485
   C       12.38491        -7.89682        -1.08028
   C       13.18494        -6.79952        -0.81881
   C       14.35273        -7.09722        -0.11705
   C       14.46101        -8.43456         0.20653
   S       13.06188        -9.31079        -0.33423
   C       15.54238        -9.14836         0.78621
   C       16.69908        -8.67157         1.37055
   C       17.58244        -9.68070         1.74793
   C       17.13049       -10.95575         1.46097
   S       15.55672       -10.88745         0.71462
   C       17.79770       -12.18555         1.68072
   C       17.28567       -13.39717         1.35305
   C       17.94407       -14.63662         1.52095
   C       17.45404       -15.88736         1.18567
   C       18.34788       -16.92350         1.42011
   C       19.55569       -16.49853         1.95002
   S       19.55653       -14.76983         2.16841
   C       20.68399       -17.28133         2.27330
   C       20.82718       -18.65730         2.16236
   C       22.06997       -19.11742         2.56085
   C       22.92434       -18.11870         3.01946
   S       22.13617       -16.56205         2.91412
   C       24.22858       -18.28016         3.50518
   C       25.03062       -17.26324         3.94665
   C       26.32485       -17.42714         4.44987
   C       27.17284       -16.42471         4.92954
   C       28.38761       -16.88141         5.38176
   C       28.54282       -18.27133         5.27255
   S       27.10650       -18.98711         4.57532
   C       29.63643       -19.04202         5.64400
   C       30.84306       -18.59401         6.22778
   C       31.73805       -19.58050         6.49319
   C       31.29335       -20.89003         6.13152
   S       29.66914       -20.77867         5.43504
   C       31.94833       -22.05516         6.26971
   H       24.02841       -21.13688        -0.12845
   H       22.42696       -21.65726        -0.87006
   H       24.38776       -18.52440         0.31046
   H       23.14859       -16.29133        -0.02539
   H       21.59341       -14.56992        -0.50034
   H       19.50454       -13.19373        -1.13965
   H       17.08652       -13.49139        -1.98986
   H       16.38064       -16.39720        -2.67616
   H       13.88068       -16.63175        -3.47431
   H       11.73945       -15.20786        -3.77594
   H        9.98921       -13.38381        -3.35954
   H        8.86317       -11.09257        -2.95150
   H        9.46764        -8.60438        -2.76807
   H       10.68981        -6.88384        -1.80716
   H       12.94112        -5.81294        -1.17303
   H       15.10943        -6.37173         0.12122
   H       16.88856        -7.62330         1.51613
   H       18.53456        -9.49810         2.21441
   H       18.78185       -12.12605         2.12875
   H       16.29858       -13.44940         0.90977
   H       16.47378       -16.02457         0.76439
   H       18.13900       -17.95513         1.20320
   H       20.04503       -19.29258         1.78837
   H       22.36132       -20.15265         2.54094
   H       24.60892       -19.29381         3.53027
   H       24.64784       -16.25033         3.92052
   H       26.87642       -15.39033         4.93740
   H       29.15662       -16.24785         5.78495
   H       31.01335       -17.55262         6.43670
   H       32.70594       -19.42979         6.93694
   H       32.93474       -22.08103         6.69758
   H       31.51474       -22.98795         5.96017
*
