# ORCA input file
# SCF done       -351.341841724019          0.000577674860
! CAM-B3LYP def2-SVP def2/J RIJCOSX Grid4 TightSCF
%maxcore 5000
%tddft
    Mode sTDDFT
    Ethresh 5.0
    maxcore 5000
end

%pal
  nprocs 6
  end
* xyz 0 1
   C       -2.85328        -1.86500        -0.58067
   C       -1.99118        -1.86278         0.45576
   C       -0.69899        -1.37206         0.10479
   C        0.43773        -1.24095         0.92333
   C        0.46452        -1.67500         2.30667
   C        1.07361        -1.06376         3.36438
   C        0.94855        -1.79586         4.56527
   C        0.26309        -2.96877         4.44482
   S       -0.25646        -3.18180         2.80704
   C       -0.04854        -3.97910         5.48717
  Cl        1.61364        -1.23739         6.05239
   C        1.56630        -0.67755         0.33345
   C        1.61308        -0.27824        -1.02376
   C        0.49198        -0.45797        -1.85615
   C       -0.64888        -0.97778        -1.25397
   S       -2.16970        -1.27005        -2.05203
   C        0.55823        -0.13043        -3.26623
   C        1.58424        -0.37915        -4.13271
   C        1.32587         0.09769        -5.43609
   C        0.11578         0.71068        -5.58211
   S       -0.74249         0.69710        -4.07755
   C       -0.47822         1.32022        -6.79874
  Cl        2.46294        -0.07935        -6.71942
   C        2.86592         0.28688        -1.36580
   C        3.76653         0.28489        -0.34140
   S        3.09742        -0.40502         1.12035
   C        5.11061         0.76630        -0.38477
   C        5.70467         1.43851        -1.41315
   C        7.06315         1.75683        -1.17635
   C        7.93908         2.47419        -2.01589
   C        7.52836         2.87733        -3.34534
   C        6.80369         2.15387        -4.24921
   C        6.56572         2.85925        -5.44842
   C        7.09989         4.11438        -5.47921
   S        7.92639         4.44477        -3.99332
   C        7.03778         5.12670        -6.56342
  Cl        5.66597         2.17511        -6.74974
   C        9.19929         2.75124        -1.50119
   C        9.63560         2.30960        -0.22664
   C        8.76611         1.57619         0.60501
   C        7.49485         1.31839         0.09871
   S        6.21307         0.49547         0.94541
   C        9.13954         1.13383         1.93275
   C        8.79202        -0.03081         2.55588
   C        9.27354        -0.10692         3.88043
   C        9.97466         0.98852         4.29194
   S       10.06204         2.14832         3.01049
   C       10.61853         1.24573         5.60509
  Cl        8.98750        -1.47711         4.88309
   C       10.98366         2.66992         0.01722
   C       11.55301         3.38038        -0.99676
   S       10.45112         3.62936        -2.33414
   C       12.86980         3.92248        -1.04785
   C       13.37961         4.77102        -1.98480
   C       14.71582         5.16417        -1.72924
   C       15.52748         6.02653        -2.49303
   C       14.99723         6.71976        -3.64941
   C       13.77162         7.30560        -3.78823
   C       13.58610         7.88346        -5.06274
   C       14.65058         7.74848        -5.90517
   S       15.92943         6.89209        -5.11158
   C       14.79982         8.22783        -7.30245
  Cl       12.12573         8.68556        -5.50110
   C       16.84046         6.18371        -2.06457
   C       17.36546         5.54003        -0.91712
   C       16.55073         4.68505        -0.14828
   C       15.23325         4.54089        -0.56688
   S       14.03272         3.54027         0.20387
   C       17.08352         3.98738         1.00450
   C       18.30006         3.37963         1.12662
   C       18.49351         2.80074         2.39953
   C       17.44438         2.95717         3.25711
   S       16.16964         3.83562         2.48011
   C       17.30776         2.48384         4.65780
  Cl       19.94464         1.97186         2.81747
   C       18.70659         5.92051        -0.66892
   C       19.20314         6.80385        -1.58051
   S       18.02612         7.22286        -2.80708
   C       20.51143         7.36777        -1.61214
   C       20.98765         8.33429        -2.44659
   C       22.34333         8.67155        -2.21015
   C       23.12513         9.64199        -2.86789
   C       22.54294        10.51869        -3.86326
   C       21.32056        11.12694        -3.83305
   C       21.07434        11.91036        -4.98109
   C       22.08862        11.91025        -5.89338
   S       23.39493        10.92459        -5.32799
   C       22.16562        12.60793        -7.20169
  Cl       19.60658        12.78719        -5.19532
   C       24.46447         9.71384        -2.50052
   C       25.03570         8.90222        -1.48968
   C       24.23808         7.97788        -0.78538
   C       22.91056         7.87728        -1.18310
   S       21.72992         6.80189        -0.48813
   C       24.79261         7.18284         0.29170
   C       25.66827         7.57663         1.26270
   C       26.02187         6.52585         2.13680
   C       25.42965         5.33042         1.85145
   S       24.39875         5.49442         0.46994
   C       25.57704         4.02704         2.54690
  Cl       27.11901         6.75297         3.44597
   C       26.42139         9.14759        -1.33792
   C       26.89619        10.13189        -2.15543
   S       25.64473        10.80107        -3.17725
   C       28.23762        10.61578        -2.23255
   C       29.29140        10.25102        -1.44647
   C       30.50016        10.91343        -1.77336
   C       31.76303        10.75771        -1.17031
   C       31.97032         9.76710        -0.13300
   C       31.49658         8.48699        -0.09382
   C       31.86667         7.80485         1.08555
   C       32.61542         8.54423         1.95370
   S       32.88723        10.12667         1.30415
   C       33.16862         8.15218         3.27459
  Cl       31.39305         6.17586         1.38893
   C       32.77636        11.59410        -1.62733
   C       32.59736        12.52545        -2.67748
   C       31.35023        12.64056        -3.31732
   C       30.32246        11.84235        -2.82717
   S       28.68542        11.81834        -3.42110
   C       31.15856        13.54454        -4.43518
   C       31.98818        13.75315        -5.49821
   C       31.48241        14.71340        -6.40203
   C       30.27973        15.24766        -6.04381
   S       29.73926        14.54764        -4.55504
   C       29.47026        16.27667        -6.74429
  Cl       32.32894        15.15975        -7.83538
   C       33.78919        13.26801        -2.92652
   C       34.81486        12.89675        -2.13427
   S       34.41294        11.62927        -1.02916
   H       -3.87849        -2.17939        -0.58255
   H       -2.25756        -2.18718         1.44416
   H        1.56574        -0.11071         3.31096
   H        0.43441        -4.92893         5.25820
   H       -1.12218        -4.15433         5.54410
   H        0.30589        -3.62802         6.45307
   H        2.47427        -0.92149        -3.87195
   H        0.24906         1.30868        -7.60687
   H       -0.77989         2.34867        -6.60516
   H       -1.36200         0.76467        -7.11231
   H        3.08120         0.69560        -2.33463
   H        5.17728         1.73486        -2.29954
   H        6.48742         1.13911        -4.09309
   H        6.59957         4.68357        -7.45433
   H        8.03467         5.49514        -6.80012
   H        6.42900         5.97843        -6.25949
   H        8.24381        -0.82708         2.08807
   H       10.33593         0.46688         6.30935
   H       10.31121         2.21336         5.99960
   H       11.70438         1.25290         5.50483
   H       11.52707         2.41632         0.90875
   H       12.81368         5.08630        -2.84209
   H       13.03968         7.36699        -3.00440
   H       15.03759         7.39963        -7.96905
   H       15.60691         8.95687        -7.37212
   H       13.87389         8.69378        -7.63068
   H       19.01939         3.30421         0.33238
   H       18.23336         2.01123         4.97693
   H       16.49600         1.76148         4.74015
   H       17.08505         3.31604         5.32430
   H       19.28207         5.58189         0.17291
   H       20.38648         8.77078        -3.22314
   H       20.63425        11.06116        -3.00929
   H       22.21146        11.88759        -8.01830
   H       23.05924        13.22837        -7.25215
   H       21.28791        13.23548        -7.33515
   H       26.01705         8.58528         1.38602
   H       26.16261         4.15833         3.45355
   H       26.08125         3.30423         1.90527
   H       24.60113         3.62006         2.80729
   H       27.04754         8.59056        -0.66737
   H       29.20460         9.55320        -0.63541
   H       30.94218         8.02606        -0.89043
   H       32.85051         7.14199         3.52035
   H       32.82342         8.83217         4.05248
   H       34.25770         8.18601         3.25896
   H       32.90511        13.21726        -5.66030
   H       29.36535        17.16817        -6.12639
   H       28.47166        15.89750        -6.95756
   H       29.95356        16.55073        -7.67874
   H       33.85351        14.05699        -3.65259
   H       35.81028        13.29539        -2.11548
*
