# ORCA input file
# SCF done       -174.868340716361          0.000942660965
! CAM-B3LYP def2-SVP def2/J RIJCOSX Grid4 TightSCF
%maxcore 5000
%tddft
    Mode sTDDFT
    Ethresh 5.0
    maxcore 5000
end

%pal
  nprocs 6
  end
* xyz 0 1
   C        5.24866         4.22734         2.23892
   C        5.07085         5.54239         2.53101
   S        3.64305         6.15295         1.77337
   C        3.26576         4.60905         1.04646
   C        2.07435         4.41750         0.18930
   C        4.21918         3.70224         1.39141
   C        4.47073         2.28276         1.13020
   O        3.75372         1.50500         0.53214
   C        5.72792         1.97613         1.86459
   C        6.19800         3.17407         2.53107
   C        7.36037         3.33810         3.24250
   C        7.69110         4.57885         3.82140
   N        7.96794         5.58510         4.30036
   C        8.33644         2.34474         3.44350
   N        9.17767         1.58235         3.61959
   C        6.22388         0.71600         2.06816
   C        5.95103        -0.44669         1.31626
   S        5.97348        -1.98902         2.13692
   C        5.72479        -2.87762         0.64654
   C        5.61173        -1.98307        -0.41711
   C        5.77391        -0.64354        -0.04784
   C        5.87675         0.34884        -1.15391
   C        4.64126         0.22784        -2.04934
   C        4.32182        -1.23640        -2.43371
   C        4.36987        -1.31144        -3.93338
   O        3.42499        -1.42860        -4.66117
   C        5.30272        -2.26945        -1.84817
   C        5.75982        -4.28172         0.77438
   C        6.07660        -5.27277        -0.12181
   C        6.20963        -6.64449         0.22632
   C        6.66999        -7.44587        -0.77473
   C        6.90361        -6.76233        -1.98555
   S        6.53575        -5.06383        -1.80086
   C        7.34929        -7.23883        -3.20479
   C        7.87966        -8.50296        -3.53698
   C        8.29652        -8.59694        -4.83163
   C        8.08104        -7.42791        -5.60272
   S        7.34527        -6.19065        -4.60614
   C        8.40787        -7.24226        -6.92467
   C        8.06095        -6.14428        -7.72430
   S        6.89151        -4.95695        -7.21035
   C        6.95578        -4.15546        -8.75472
   C        7.90746        -4.74091        -9.58392
   C        8.50018        -5.87082        -9.02334
   C        9.49967        -6.69272        -9.77041
   C       10.15709        -5.85485       -10.86538
   C        9.09755        -5.19471       -11.74718
   C        8.26045        -6.21823       -12.48140
   O        7.12006        -6.07191       -12.80935
   C        8.21629        -4.22595       -10.95333
   C        6.13475        -3.03771        -9.03987
   C        4.87712        -2.79156        -8.58164
   C        4.32908        -1.40040        -8.63277
   O        4.83570        -0.45295        -9.19580
   C        3.11330        -1.45179        -7.82482
   C        2.17130        -0.56477        -7.40125
   S        0.96779        -1.40075        -6.46072
   C        1.74391        -2.92553        -6.65613
   C        2.87577        -2.80116        -7.39821
   C        3.89806        -3.66186        -7.95426
   C        3.78175        -5.02509        -8.06238
   C        2.73259        -5.72114        -7.43078
   N        1.90007        -6.31266        -6.90586
   C        4.59990        -5.86069        -8.84599
   N        5.19612        -6.59053        -9.50311
   C        2.09860         0.89242        -7.65154
   H        5.66463         6.19696         3.13690
   H        2.13855         5.03983        -0.70334
   H        1.16718         4.69602         0.72415
   H        2.01121         3.37266        -0.10603
   H        6.86936         0.56357         2.92604
   H        6.77492         0.11333        -1.73452
   H        5.97126         1.36752        -0.78418
   H        4.79272         0.82974        -2.94904
   H        3.79277         0.64316        -1.50813
   H        3.31073        -1.48253        -2.10033
   H        5.39453        -1.20919        -4.34624
   H        6.23237        -2.25020        -2.42702
   H        4.85843        -3.25691        -1.95616
   H        5.63522        -4.62998         1.79392
   H        5.97037        -6.99043         1.21634
   H        6.83066        -8.50474        -0.67972
   H        7.96209        -9.29367        -2.81299
   H        8.73948        -9.47627        -5.26498
   H        8.96242        -8.03653        -7.40589
   H        8.98325        -7.54805       -10.21837
   H       10.26150        -7.08009        -9.09098
   H       10.80857        -6.48634       -11.47246
   H       10.77205        -5.07783       -10.40626
   H        9.60382        -4.63421       -12.54528
   H        8.82288        -7.13586       -12.74892
   H        7.28500        -4.07322       -11.50450
   H        8.71178        -3.25468       -10.85873
   H        6.56968        -2.25622        -9.65654
   H        1.31979        -3.79548        -6.19635
   H        2.92489         1.18764        -8.29416
   H        2.16078         1.44153        -6.71215
   H        1.15618         1.15581        -8.13052
*
