# ORCA input file
# SCF done       -178.119624257400          0.000754678278
! CAM-B3LYP def2-SVP def2/J RIJCOSX Grid4 TightSCF
%maxcore 5000
%tddft
    Mode sTDDFT
    Ethresh 5.0
    maxcore 5000
end

%pal
  nprocs 6
  end
* xyz 0 1
   C       -6.25712        -1.66493        -5.25828
   O       -6.03192        -2.80745        -5.63388
   C       -6.17814        -0.46984        -6.11904
   C       -6.49502         0.67420        -5.36827
   C       -6.48593         1.91648        -5.98532
   C       -6.16168         1.99250        -7.33227
   C       -5.85079         0.84723        -8.05247
   C       -5.85338        -0.40735        -7.45812
  Br       -5.41270         1.00069        -9.89511
   C       -6.78706         0.26174        -3.99567
   C       -7.12356         1.12300        -2.98228
   C       -7.23178         2.52156        -3.13910
   N       -7.33868         3.66332        -3.19260
   C       -7.40865         0.77959        -1.64384
   N       -7.65767         0.60272        -0.53621
   C       -6.64692        -1.18251        -3.92804
   C       -6.86045        -1.92047        -2.78183
   C       -6.76901        -3.29415        -2.53636
   N       -6.42130        -4.26562        -3.44920
   C       -6.44189        -5.45900        -2.82626
   C       -6.23119        -6.82072        -3.01091
   C       -6.47571        -7.42557        -1.76995
   N       -6.82804        -6.46080        -0.84715
   C       -6.81772        -5.24770        -1.46160
   C       -7.02306        -3.89724        -1.27734
   C       -6.39856        -8.78837        -1.39077
   C       -6.07142        -9.80469        -2.23084
   C       -5.97189       -11.18357        -1.89346
   C       -6.16557       -11.71230        -0.63197
   C       -6.06780       -13.05749        -0.30435
   C       -5.84558       -14.07358        -1.34003
   C       -5.60610       -13.78909        -2.64081
   S       -5.55262       -12.19607        -3.26524
   C       -5.95027       -15.32878        -0.67933
   C       -6.21278       -15.12388         0.67498
   C       -6.33725       -16.33543         1.38841
   C       -6.17079       -17.40786         0.57102
   S       -5.85349       -16.99569        -1.08192
   C       -6.25205       -13.70949         0.94428
   C       -6.42660       -13.20466         2.24234
   C       -6.19658       -11.93458         2.69752
   C       -6.44332       -11.52461         4.01966
   C       -6.19027       -10.15491         4.48388
   N       -6.51224        -9.92840         5.72038
   C       -6.99501       -11.11822         6.18985
   C       -6.96192       -12.15210         5.14843
   C       -7.45957       -13.38398         5.68605
   S       -7.64121       -14.86612         4.98793
   C       -7.81174       -13.06632         7.05306
   C       -7.51341       -11.66704         7.33991
   N       -7.84892       -11.35774         8.62533
   C       -8.28266       -12.46420         9.15166
   C       -8.29327       -13.60577         8.22545
   C       -8.77477       -14.91533         8.47782
   C       -8.81624       -15.56222         9.67165
   C       -9.71621       -16.72998         9.87096
   O      -10.29049       -17.36472         9.02006
   C       -9.79800       -16.89597        11.34118
   C       -8.91802       -15.99467        11.96988
   C       -8.18893       -15.25631        10.94233
   C       -7.00105       -14.59884        11.11602
   C       -6.40266       -14.38565        12.37518
   N       -5.89256       -14.18197        13.38265
   C       -6.19079       -14.15821        10.04618
   N       -5.46086       -13.85748         9.21366
   C       -8.84985       -15.95062        13.35474
   C       -9.65366       -16.80927        14.08843
   C      -10.50567       -17.70109        13.44850
   C      -10.59487       -17.75962        12.06410
  Br      -11.57838       -18.86599        14.49702
   H       -6.72335         2.82028        -5.44965
   H       -6.15092         2.95205        -7.82595
   H       -5.61335        -1.30200        -8.01143
   H       -7.15029        -1.36072        -1.90313
   H       -6.19800        -4.03635        -4.41983
   H       -5.93868        -7.32208        -3.91015
   H       -7.06083        -6.64283         0.11401
   H       -7.31225        -3.37137        -0.38972
   H       -6.62596        -8.99531        -0.35357
   H       -5.86228        -9.56678        -3.26425
   H       -6.44053       -11.01887         0.14673
   H       -5.42624       -14.55545        -3.37795
   H       -6.54560       -16.41283         2.43985
   H       -6.21344       -18.44671         0.83374
   H       -6.74858       -13.93534         2.97400
   H       -5.76936       -11.18400         2.04679
   H       -5.76847        -9.37170         3.87584
   H       -8.65076       -12.48135        10.16284
   H       -9.21920       -15.43743         7.63525
   H       -8.19837       -15.26073        13.86642
   H       -9.61871       -16.78689        15.16680
   H      -11.25731       -18.44927        11.56430
*
