# ORCA input file
# SCF done       -149.885174178185          0.000463831047
! CAM-B3LYP def2-SVP def2/J RIJCOSX Grid4 TightSCF
%maxcore 5000
%tddft
    Mode sTDDFT
    Ethresh 5.0
    maxcore 5000
end

%pal
  nprocs 6
  end
* xyz 0 1
   C        1.98752        -8.34751         3.30413
   O        1.25842        -7.45035         2.89116
   C        3.06578        -8.15100         4.29934
   C        3.80483        -9.33798         4.42365
   C        4.87529        -9.38603         5.30124
   C        5.18155        -8.25520         6.04986
   C        4.42898        -7.10056         5.91668
   C        3.36149        -7.02240         5.03209
  Br        4.85334        -5.57490         6.97215
   C        3.20356       -10.34197         3.54119
   C        3.61943       -11.65130         3.45206
   C        4.74319       -12.16516         4.12644
   N        5.65220       -12.64102         4.64421
   C        2.98462       -12.66770         2.71166
   N        2.51862       -13.56513         2.16480
   C        2.07487        -9.73770         2.88104
   C        1.31878       -10.37668         1.89696
   C        0.05001       -10.06555         1.41494
   C       -0.86170        -9.21102         2.03218
   C       -2.13468        -8.94388         1.58398
   C       -2.73802        -9.70768         0.48325
   C       -2.05930       -10.59809        -0.27248
   S       -0.39365       -10.95451        -0.05981
   C       -4.10645        -9.32274         0.46866
   C       -4.34823        -8.36868         1.46346
   C       -5.69683        -7.94336         1.47707
   C       -6.42776        -8.57161         0.52239
   S       -5.51629        -9.69569        -0.43630
   C       -3.12286        -8.07515         2.14246
   C       -2.92338        -7.08245         3.11780
   C       -1.68573        -6.55685         3.37366
   C       -1.27968        -5.69982         4.40689
   N        0.06030        -5.36659         4.47250
   C        0.26682        -4.61760         5.57772
   C        1.23728        -3.96026         6.32345
   C        0.56925        -3.37937         7.40902
   N       -0.77875        -3.67076         7.32636
   C       -0.99434        -4.43242         6.21844
   C       -1.95916        -5.11038         5.49312
   C        1.08531        -2.59556         8.47046
   C        2.40101        -2.30071         8.63170
   C        2.93909        -1.49531         9.66431
   C        2.31384        -0.85339        10.72194
   C        3.17597        -0.11826        11.53233
   C        4.49917        -0.20369        11.07531
   S        4.66256        -1.18325         9.67588
   C        5.45474         0.52681        11.82156
   C        4.95840         1.23841        12.92069
  Si        3.11193         0.96496        13.05886
   C        2.10406         2.52761        12.82736
   C        2.61254         0.02900        14.60375
   C        5.97618         1.93478        13.57504
   C        7.22606         1.77391        13.00719
   S        7.14829         0.71890        11.61304
   C        8.48619         2.32321        13.38143
   C        8.69231         3.16702        14.41347
   C        9.96184         3.73167        14.79728
   C       11.13429         3.54562        14.18997
   H        5.47478       -10.27331         5.41923
   H        6.01121        -8.27976         6.73982
   H        2.78280        -6.11796         4.93239
   H        1.78156       -11.23861         1.43121
   H       -0.54469        -8.78578         2.96998
   H       -2.51894       -11.14292        -1.08191
   H       -6.10409        -7.21629         2.15582
   H       -7.47041        -8.44866         0.30345
   H       -3.79308        -6.70825         3.64057
   H       -0.88525        -6.82451         2.69908
   H        0.73953        -5.78240         3.84566
   H        2.28780        -3.88656         6.13137
   H       -1.46824        -3.36726         7.99184
   H       -3.01023        -5.18633         5.68682
   H        0.36286        -2.21616         9.18103
   H        3.11684        -2.69733         7.92623
   H        1.25475        -0.91962        10.89577
   H        2.39008         3.07271        11.93016
   H        2.22388         3.20909        13.66699
   H        1.04080         2.31162        12.74524
   H        3.19063        -0.88345        14.73497
   H        1.56333        -0.25823        14.57837
   H        2.75451         0.62886        15.50023
   H        5.80826         2.54472        14.44439
   H        9.32084         2.02006        12.76513
   H        7.84846         3.46095        15.02229
   H        9.92894         4.37092        15.67108
   H       11.24282         2.92779        13.31558
   H       12.03246         4.01365        14.55333
*
