# ORCA input file
# SCF done       -199.531701435180          0.000617278679
! CAM-B3LYP def2-SVP def2/J RIJCOSX Grid4 TightSCF
%maxcore 5000
%tddft
    Mode sTDDFT
    Ethresh 5.0
    maxcore 5000
end

%pal
  nprocs 6
  end
* xyz 0 1
   C       -6.78211        -0.49748        -0.59842
   O       -7.32981        -1.57520        -0.57280
   C       -7.32386         0.74805        -1.18653
   C       -6.52480         1.83974        -0.80473
   C       -6.85903         3.11631        -1.23782
   C       -7.97736         3.27874        -2.04009
   C       -8.75492         2.18525        -2.40029
   C       -8.44509         0.90072        -1.97535
  Br      -10.27730         2.45788        -3.50235
   C       -5.42670         1.35763         0.02846
   C       -4.48158         2.14531         0.62822
   C       -4.44272         3.55316         0.52869
   N       -4.35316         4.69659         0.48806
   C       -3.42767         1.68408         1.44619
   N       -2.54606         1.39325         2.12204
   C       -5.51887        -0.09373         0.07468
   C       -4.65647        -0.94627         0.68437
   C       -4.64234        -2.37308         0.52946
   C       -4.28326        -3.20407         1.58019
   C       -4.27971        -4.59307         1.47149
   C       -4.58257        -5.25998         0.29476
   C       -4.88314        -4.44263        -0.82474
   C       -4.91648        -3.00815        -0.70836
   N       -5.16069        -2.41661        -1.87528
   S       -5.38720        -3.54747        -2.99127
   N       -5.15150        -4.83795        -2.07050
   C       -4.54410        -6.71607         0.21288
   C       -4.87820        -7.49123         1.33212
   C       -4.77647        -8.85948         1.26290
   C       -4.33530        -9.48293         0.08464
   C       -4.02215        -8.72580        -1.03447
   C       -4.13191        -7.35135        -0.96313
   C       -4.30667       -10.91267         0.30590
   C       -4.73350       -11.17521         1.62014
   C       -5.02392        -9.88319         2.35172
   C       -3.99064        -9.60566         3.46977
   C       -3.93010       -10.62710         4.59772
   C       -6.46384        -9.82835         2.88316
   C       -7.49764        -9.96322         1.77103
   C       -4.84249       -12.46997         2.06849
   C       -4.46811       -13.52779         1.22585
   C       -4.02541       -13.24665        -0.07144
   C       -3.95554       -11.95207        -0.54252
   C       -4.50078       -14.89380         1.69997
   C       -5.03704       -15.38166         2.85808
   C       -4.83286       -16.76922         3.04051
   C       -4.11616       -17.33991         1.97278
   S       -3.72977       -16.16033         0.76078
   C       -3.76649       -18.68102         1.91059
   O       -3.10173       -19.05829         0.79089
   C       -3.14937       -20.38564         0.31645
   C       -4.11316       -19.46863         3.02919
   C       -4.87601       -18.89657         4.10279
   C       -5.26339       -17.56789         4.12339
   O       -5.99029       -16.90162         5.05560
   C       -6.61486       -17.59162         6.11316
   S       -5.15056       -20.09324         5.35382
   C       -4.25489       -21.31021         4.47390
   C       -3.77925       -20.81269         3.28396
   C       -4.02953       -22.56212         5.08357
   C       -3.53658       -23.72334         4.56005
   C       -2.96677       -24.73111         5.49340
   O       -3.07912       -24.75678         6.69617
   C       -2.19203       -25.65688         4.63495
   C       -2.38239       -25.31184         3.28462
   C       -3.33047       -24.20037         3.21332
   C       -4.05763       -23.86168         2.09932
   C       -3.83041       -24.39220         0.81442
   N       -3.66436       -24.75844        -0.26110
   C       -5.15943       -22.98534         2.12756
   N       -6.07467       -22.29240         2.10444
   C       -1.72702       -26.02569         2.29285
   C       -0.89761       -27.07363         2.66377
   C       -0.73361       -27.40612         4.00202
   C       -1.37700       -26.70312         5.01273
  Br        0.40443       -28.85652         4.46002
   H       -6.27255         3.97897        -0.96801
   H       -8.24905         4.26363        -2.38777
   H       -9.04722         0.04827        -2.24903
   H       -3.89727        -0.54723         1.34520
   H       -4.03372        -2.75536         2.53093
   H       -3.99850        -5.16988         2.33955
   H       -5.24063        -7.01183         2.22933
   H       -3.68959        -9.19964        -1.94552
   H       -3.88155        -6.74813        -1.82060
   H       -4.22004        -8.62475         3.89241
   H       -3.00366        -9.54093         3.00387
   H       -4.89829       -10.74934         5.07597
   H       -3.22404       -10.28552         5.35179
   H       -3.58929       -11.59149         4.23179
   H       -6.61173        -8.88009         3.40432
   H       -6.60981       -10.63425         3.60350
   H       -7.39669        -9.15475         1.05045
   H       -8.50191        -9.92979         2.18711
   H       -7.37364       -10.90765         1.24556
   H       -5.20570       -12.68274         3.06039
   H       -3.74328       -14.06817        -0.71360
   H       -3.62951       -11.75382        -1.55212
   H       -5.57115       -14.79269         3.57963
   H       -4.10151       -20.86680         0.55011
   H       -2.31780       -20.97768         0.71169
   H       -3.03819       -20.31649        -0.76619
   H       -7.26240       -18.39182         5.74678
   H       -7.22189       -16.84361         6.62191
   H       -5.88693       -18.00135         6.81811
   H       -3.12543       -21.39124         2.65965
   H       -4.19290       -22.59236         6.15712
   H       -1.83898       -25.77939         1.24935
   H       -0.37508       -27.63762         1.90651
   H       -1.25096       -26.95807         6.05347
*
