# ORCA input file
# SCF done       -193.538222954121          0.000771155716
! CAM-B3LYP def2-SVP def2/J RIJCOSX Grid4 TightSCF
%maxcore 5000
%tddft
    Mode sTDDFT
    Ethresh 5.0
    maxcore 5000
end

%pal
  nprocs 6
  end
* xyz 0 1
   C       -9.24055         7.33909         2.66803
   C       -8.04634         7.01208         2.12112
   C       -7.62940         5.68648         1.89023
   C       -8.55443         4.57598         2.16106
   C       -9.77876         4.70720         2.72050
   S      -10.45100         6.21553         3.18198
   C       -7.88507         3.40341         1.71249
   C       -6.63749         3.74821         1.20043
   C       -5.92081         2.62365         0.73732
   C       -6.63234         1.47769         0.90458
   S       -8.18642         1.71273         1.62945
   C       -6.45034         5.17470         1.32875
   C       -5.24992         5.81267         0.92677
   C       -4.80846         7.04453         1.29248
   C       -3.60638         7.63233         0.82743
   C       -2.68325         7.15073        -0.09179
   C       -1.64362         8.04786        -0.31151
   C       -1.76205         9.22880         0.44157
   S       -3.15732         9.22440         1.42621
   C       -0.67985        10.08249         0.11523
   C        0.12457         9.43931        -0.84444
   C       -0.44584         8.14283        -1.14025
   C        0.02716         7.20365        -2.01049
   C       -0.62030         5.96579        -2.19929
   N       -1.14950         4.95935        -2.35136
   C        1.18793         7.41320        -2.78400
   N        2.12149         7.58101        -3.42840
   C        1.21989        10.21453        -1.23350
   C        1.23564        11.43468        -0.60100
   S       -0.10204        11.63042         0.51563
   C        2.20480        12.49310        -0.78571
   C        1.83125        13.80701        -1.11639
   C        0.45003        14.22487        -1.39143
   O       -0.53309        13.54628        -1.48192
   S        0.41685        16.00126        -1.65033
   C        2.19529        16.15994        -1.48435
   O        2.75268        17.22004        -1.50760
   C        2.77649        14.82522        -1.28044
   C        4.15622        14.57978        -1.20562
   C        4.53079        13.26066        -0.90202
   C        3.58598        12.26012        -0.66135
   C        4.16522        10.98179        -0.20988
   O        3.60401        10.01310         0.20982
   S        5.95519        11.08728        -0.31454
   C        5.92903        12.79335        -0.86668
   O        6.92083        13.38571        -1.17610
   C        5.13660        15.62210        -1.43738
   C        6.14857        16.01983        -0.59937
   C        6.89924        17.06447        -1.14954
   C        6.44891        17.43693        -2.42707
   S        5.10775        16.52611        -2.93796
   C        7.26782        18.49249        -2.90366
   C        8.23468        18.78534        -1.93093
   C        8.03387        17.89289        -0.79393
   C        8.76001        17.85574         0.36036
   C        8.45666        16.96263         1.40974
   N        8.20918        16.25029         2.27342
   C        9.85456        18.71597         0.58583
   N       10.74443        19.41523         0.77113
   C        9.07745        19.83301        -2.29953
   C        8.75589        20.34796        -3.54353
   S        7.39235        19.50572        -4.27146
   C        9.37656        21.43278        -4.22972
   C        8.91226        21.91144        -5.42910
   C        9.45950        22.98661        -6.13077
   C       10.57317        23.76425        -5.55936
   C       11.19874        23.45378        -4.40432
   S       10.77908        22.11847        -3.41350
   C       10.78600        24.83680        -6.46622
   C        9.87805        24.73755        -7.52473
   C       10.03864        25.78356        -8.46233
   C       11.03591        26.62981        -8.09882
   S       11.82371        26.19718        -6.61574
   C        9.06101        23.57422        -7.33847
   C        8.04710        23.16686        -8.27333
   C        7.58750        21.93072        -8.46594
   H       -9.53702         8.36191         2.82791
   H       -7.39961         7.82313         1.82221
   H      -10.41712         3.86016         2.91558
   H       -4.93808         2.65077         0.30290
   H       -6.33978         0.47943         0.64375
   H       -4.61438         5.21251         0.28915
   H       -5.36891         7.63409         2.00250
   H       -2.77747         6.19749        -0.57735
   H        1.95194         9.91992        -1.96330
   H        6.31490        15.58748         0.37043
   H        9.88221        20.21660        -1.69862
   H        8.03086        21.43343        -5.83414
   H       12.02422        24.03092        -4.01801
   H        9.45190        25.90668        -9.35453
   H       11.37549        27.50615        -8.61561
   H        7.66983        23.96794        -8.89825
   H        7.97244        21.07803        -7.93471
   H        6.82726        21.72937        -9.20081
*
