# ORCA input file
# SCF done       -154.155579340621          0.000942334812
! CAM-B3LYP def2-SVP def2/J RIJCOSX Grid4 TightSCF
%maxcore 5000
%tddft
    Mode sTDDFT
    Ethresh 5.0
    maxcore 5000
end

%pal
  nprocs 6
  end
* xyz 0 1
   C       -3.64510        -1.31399         1.29196
   C       -2.53189        -1.74390         0.61149
   C       -1.55149        -2.59781         1.15554
   N       -0.71526        -3.28118         1.54581
   C       -2.20383        -1.39016        -0.71230
   N       -1.87117        -1.14718        -1.78484
   C       -4.00381        -1.68528         2.65516
   C       -5.20055        -1.01739         3.01577
   C       -5.79778        -1.17429         4.24197
   C       -5.19309        -2.04436         5.15538
   C       -3.99762        -2.70716         4.78804
   C       -3.38788        -2.54043         3.55098
   S       -3.41810        -3.73318         6.06481
   C       -4.77255        -3.26713         7.05930
   C       -5.61532        -2.38723         6.46875
  Br       -4.94381        -3.98439         8.78300
   C       -5.64686        -0.17328         1.89405
   O       -6.50370         0.67968         1.92214
   C       -4.69865        -0.46361         0.77797
   C       -4.79419         0.07675        -0.46918
   C       -5.98876         0.63241        -0.99328
   O       -5.91990         1.50858        -2.03556
   C       -7.32217         0.36546        -0.74040
   C       -8.24266        -0.48538         0.02607
   O       -8.03892        -1.36432         0.82162
   N       -9.49995        -0.09858        -0.43294
   C       -9.49998         0.85634        -1.44731
   O      -10.48060         1.29352        -1.99086
   C       -8.07581         1.13435        -1.65526
   C       -7.17478         1.83334        -2.43868
   C       -7.40258         2.72477        -3.52111
   C       -6.41786         3.31409        -4.23529
   C       -6.68701         4.15899        -5.35482
   C       -5.78195         4.79029        -6.12405
   C       -4.30558         4.77946        -5.90338
   C       -6.22965         5.58205        -7.33081
   N       -7.42562         5.04357        -7.92566
   C       -8.55470         5.71417        -8.22823
   C       -8.75472         7.06067        -8.19268
   C       -9.99139         7.63516        -8.53305
   C      -10.25595         8.97963        -8.56066
   C      -11.48639         9.59854        -8.88395
   C      -11.45967        10.95915        -8.84282
   C      -10.20186        11.49825        -8.48976
   S       -9.05275        10.21567        -8.19687
   C       -9.85886        12.83343        -8.38553
   C      -10.68854        13.95729        -8.58257
   C      -10.05196        15.14922        -8.41821
   C       -8.67625        15.04416        -8.08534
   S       -8.23365        13.34932        -7.97948
   C       -7.84108        16.11441        -7.88941
   C       -6.46909        16.12639        -7.57759
   C       -5.53113        14.97449        -7.36279
   N       -4.31112        15.29428        -7.09727
   C       -4.31313        16.67924        -7.10758
   C       -3.64231        17.85431        -6.98040
   S       -5.06260        18.89734        -7.29310
   C       -5.62917        17.18509        -7.39641
   H       -6.70948        -0.65161         4.48313
   H       -2.47703        -3.06713         3.32082
   H       -6.49919        -1.99553         6.93783
   H       -3.94872         0.07409        -1.14348
   H      -10.35201        -0.50585        -0.07421
   H       -8.44399         2.89667        -3.75306
   H       -5.39203         3.11259        -3.96485
   H       -7.73679         4.27720        -5.59506
   H       -4.04662         4.47844        -4.89442
   H       -3.89572         5.77131        -6.08679
   H       -3.82705         4.09161        -6.60156
   H       -5.41964         5.59032        -8.07234
   H       -6.41564         6.61764        -7.03511
   H       -7.43712         4.04038        -8.02221
   H       -9.36952         5.08055        -8.55479
   H       -7.96302         7.73736        -7.90721
   H      -10.80411         6.97071        -8.79763
   H      -12.35440         9.01523        -9.13675
   H      -12.30410        11.58752        -9.06088
   H      -11.72835        13.85935        -8.83797
   H      -10.52372        16.10973        -8.52842
   H       -8.29750        17.09174        -7.99624
   H       -5.82260        13.94188        -7.41880
   H       -2.63667        18.16182        -6.77504
*
