# ORCA input file
# SCF done       -217.828193913748          0.000754009668
! CAM-B3LYP def2-SVP def2/J RIJCOSX Grid4 TightSCF
%maxcore 5000
%tddft
    Mode sTDDFT
    Ethresh 5.0
    maxcore 5000
end

%pal
  nprocs 6
  end
* xyz 0 1
   C       -4.18401        -1.75971         1.10146
   C       -4.72705        -2.72306         1.91078
   C       -4.19309        -4.01931         2.06934
   N       -3.80173        -5.08449         2.24167
   C       -5.90562        -2.56087         2.66975
   N       -6.86795        -2.50896         3.29335
   C       -3.02389        -1.91777         0.23503
   C       -2.84494        -0.72836        -0.51686
   C       -1.81912        -0.56991        -1.41791
   C       -0.93103        -1.63655        -1.58399
   C       -1.12184        -2.82527        -0.83868
   C       -2.15748        -2.98434         0.07339
   S        0.10044        -4.00602        -1.19871
   C        0.84607        -2.89483        -2.31995
   C        0.21138        -1.70507        -2.42642
  Br        2.38677        -3.41513        -3.25410
   C       -3.87108         0.25600        -0.13623
   O       -3.92538         1.41660        -0.47281
   C       -4.72497        -0.43154         0.88210
   C       -5.71449         0.18976         1.57693
   C       -6.34365         1.39356         1.13375
   C       -6.77947         2.38910         2.04776
   C       -7.30322         3.64812         1.59798
   N       -7.65449         4.58099         2.48602
   C       -7.52096         4.32541         3.77079
   C       -6.99051         3.07679         4.21722
   N       -6.63126         2.15154         3.35902
   C       -6.84606         2.82937         5.60710
   N       -6.74086         2.67478         6.73655
   C       -7.91483         5.31321         4.70732
   N       -8.22491         6.09860         5.48130
   C       -7.41541         3.96318         0.20199
   C       -7.16470         2.88532        -0.67833
   C       -6.62707         1.62981        -0.21849
   N       -6.50231         0.75211        -1.22390
   S       -6.96040         1.43979        -2.57832
   N       -7.40425         2.86577        -1.98629
   C       -7.71449         5.27676        -0.17853
   C       -7.55575         5.89774        -1.40438
   C       -7.79065         7.27839        -1.61160
   C       -7.40119         7.73767        -2.83830
   C       -6.82923         6.73363        -3.64219
   S       -6.87329         5.18947        -2.84855
   C       -6.25665         6.85954        -4.91125
   C       -6.20156         7.99351        -5.73281
   C       -5.53926         7.76210        -6.90888
   C       -5.03281         6.45162        -7.04937
   S       -5.43713         5.50180        -5.64744
   C       -4.31709         6.06231        -8.17663
   C       -3.68421         4.87695        -8.53441
   C       -3.58738         3.68710        -7.74868
   C       -2.82399         2.54039        -8.19509
   N       -2.88142         1.40447        -7.48044
   C       -3.47963         1.39685        -6.31599
   C       -4.09597         2.57537        -5.80171
   N       -4.17802         3.65760        -6.56710
   C       -4.60303         2.54826        -4.50173
   N       -4.95233         2.41692        -3.41073
   C       -3.47819         0.20529        -5.54920
   N       -3.44404        -0.73147        -4.89015
   C       -2.04081         2.55866        -9.36752
   C       -2.19465         3.70554       -10.18847
   C       -2.99505         4.82928        -9.78599
   N       -2.97651         5.80060       -10.69030
   S       -2.04439         5.35095       -11.92668
   N       -1.61845         3.90284       -11.36890
   C       -1.18259         1.50210        -9.77074
   C       -0.63200         0.51302        -9.01260
   C       -0.51641         0.33807        -7.58349
   C       -0.31777         1.32389        -6.64778
   C       -0.14192         1.07248        -5.27683
   N       -0.02698         0.93114        -4.14240
   C       -0.30093         2.69664        -6.95591
   N       -0.31984         3.82679        -7.16079
   C       -0.41163        -1.09262        -7.33425
   C       -0.14707        -1.74696        -8.56456
   C       -0.16995        -0.75076        -9.65801
   O        0.06607        -0.92498       -10.82918
   C        0.02475        -3.10717        -8.64731
   C       -0.11336        -3.85563        -7.47218
   C       -0.43350        -3.19389        -6.26206
   C       -0.56746        -1.81468        -6.16803
   S       -0.64274        -4.31696        -4.95756
   C       -0.26103        -5.64035        -6.02463
   C       -0.01023        -5.26309        -7.30110
  Br       -0.23726        -7.38789        -5.35104
   H       -1.69723         0.34350        -1.97824
   H       -2.25631        -3.90190         0.62919
   H        0.52949        -0.89241        -3.05514
   H       -6.05392        -0.19712         2.52918
   H       -8.02689         5.91868         0.63770
   H       -8.22272         7.89461        -0.84284
   H       -7.49193         8.75937        -3.16005
   H       -6.64065         8.93707        -5.46236
   H       -5.39349         8.50342        -7.67470
   H       -4.21396         6.83940        -8.92675
   H       -0.98408         1.45035       -10.83627
   H        0.24200        -3.58426        -9.59004
   H       -0.82652        -1.35404        -5.22914
   H        0.23691        -5.94862        -8.09089
*
