# ORCA input file
# SCF done       -181.020107242527          0.000331527649
! CAM-B3LYP def2-SVP def2/J RIJCOSX Grid4 TightSCF
%maxcore 5000
%tddft
    Mode sTDDFT
    Ethresh 5.0
    maxcore 5000
end

%pal
  nprocs 6
  end
* xyz 0 1
   C       -1.44532         1.01879        -2.81195
   C       -1.52984        -0.35156        -2.77393
   C       -0.49678        -1.21915        -3.18432
   N        0.30134        -1.98089        -3.50273
   C       -2.63379        -1.09838        -2.31569
   N       -3.48607        -1.77973        -1.95367
   C       -0.27594         1.77313        -3.25600
   C       -0.54653         3.15550        -3.11048
   C        0.36360         4.13009        -3.43685
   C        1.60628         3.72104        -3.93275
   C        1.86860         2.33858        -4.07713
   C        0.94594         1.35305        -3.74654
   S        3.46315         2.05305        -4.70645
   C        3.75158         3.77152        -4.76467
   C        2.70924         4.52232        -4.33641
  Br        5.40147         4.41272        -5.38529
   C       -1.90909         3.32633        -2.57138
   O       -2.45684         4.38827        -2.33289
   C       -2.45235         1.97611        -2.40226
   C       -3.71028         1.65711        -1.94874
   C       -4.74628         2.46745        -1.47521
   S       -4.70136         4.20545        -1.31259
   C       -6.28904         4.21982        -0.62592
   C       -6.84626         2.94355        -0.55779
   C       -5.98165         1.95921        -1.03251
   C       -6.36055         0.51330        -1.10243
   C       -7.65491         0.23068        -0.34461
   C       -8.71103         1.28513        -0.67010
   N      -10.00239         0.85825        -0.16729
   C       -8.23742         2.63566        -0.10217
   C       -6.83573         5.48633        -0.25142
   C       -7.78139         5.70097         0.68367
   C       -8.32664         6.98567         1.04665
   C       -8.58857         8.02180         0.23798
   C       -8.41572         8.02272        -1.24577
   C       -9.20627         9.27959         0.79640
   N      -10.60980         9.36176         0.43011
   C      -11.46784         8.35113         0.71617
   C      -12.81286         8.44655         0.70748
   C      -13.67697         7.34843         0.97214
   S      -13.11365         5.74074         1.31287
   C      -14.72142         5.16474         1.54465
   C      -15.64722         6.13945         1.37454
   C      -15.06044         7.38631         1.04606
   O      -15.70991         8.56049         0.78089
   C      -16.92554         8.79115         1.24755
   C      -17.59008         9.92653         0.90869
   C      -18.88707        10.27708         1.32980
   C      -19.68784         9.80124         2.33608
   C      -21.14474        10.07995         2.23612
   O      -21.68579        10.83764         1.46030
   C      -21.78695         9.20924         3.23930
   C      -23.11423         9.00337         3.47733
   C      -23.50004         8.08595         4.48088
   C      -22.49406         7.39343         5.21452
   C      -22.88400         6.47403         6.20755
   C      -24.21413         6.26962         6.44796
   C      -25.21821         6.94210         5.73908
   C      -24.85691         7.83674         4.77018
   F      -24.58831         5.39149         7.39790
   C      -21.12485         7.63382         4.94949
   C      -20.77630         8.53552         3.98125
   C      -19.46889         9.00433         3.51660
   C      -18.30740         8.87985         4.24314
   C      -17.09926         9.52434         3.92557
   N      -16.08823        10.02888         3.71621
   C      -18.19630         8.13794         5.43496
   N      -18.03233         7.52928         6.39539
   H        0.12601         5.17489        -3.31213
   H        1.19618         0.31367        -3.87647
   H        2.71585         5.59653        -4.30538
   H       -3.95480         0.60373        -1.94169
   H       -5.56165        -0.11619        -0.70404
   H       -6.48920         0.23974        -2.15485
   H       -7.46470         0.23813         0.73109
   H       -8.03373        -0.75498        -0.61264
   H       -8.80641         1.37158        -1.75942
   H       -9.96863         0.73605         0.83960
   H      -10.71621         1.54768        -0.37503
   H       -8.26364         2.57713         0.99229
   H       -8.91410         3.43821        -0.41008
   H       -6.36342         6.33552        -0.72551
   H       -8.13808         4.87396         1.28077
   H       -8.59044         7.07887         2.09431
   H       -8.39995         7.01113        -1.64276
   H       -7.48263         8.51469        -1.52153
   H       -9.23252         8.57582        -1.70674
   H       -8.70392        10.15111         0.36799
   H       -9.08126         9.31010         1.88815
   H      -11.00972        10.28752         0.38720
   H      -10.99655         7.39754         0.91315
   H      -13.30239         9.39049         0.51623
   H      -14.88123         4.13424         1.78763
   H      -16.70505         5.96419         1.45537
   H      -17.39102         8.02421         1.85638
   H      -17.10363        10.59161         0.20958
   H      -19.38647        11.01657         0.70956
   H      -23.86227         9.53365         2.90727
   H      -22.13799         5.94121         6.77635
   H      -26.25154         6.74009         5.97255
   H      -25.61212         8.36745         4.21009
   H      -20.38755         7.08902         5.51744
*
