# ORCA input file
# SCF done       -180.591352067010          0.000686081253
! CAM-B3LYP def2-SVP def2/J RIJCOSX Grid4 TightSCF
%maxcore 5000
%tddft
    Mode sTDDFT
    Ethresh 5.0
    maxcore 5000
end

%pal
  nprocs 6
  end
* xyz 0 1
   C      -13.59222         7.53099         0.40307
   C      -14.31178         7.09075         1.48282
   C      -15.48489         7.71037         1.96108
   N      -16.44153         8.17383         2.39305
   C      -13.96330         5.95937         2.24834
   N      -13.71186         5.04095         2.88935
   C      -13.90415         8.69430        -0.42260
   C      -12.90514         8.83031        -1.42353
   C      -12.89864         9.86154        -2.33134
   C      -13.94403        10.78694        -2.26913
   C      -14.95828        10.62567        -1.29438
   C      -14.94915         9.59648        -0.35858
   S      -16.16677        11.86450        -1.42634
   C      -15.29889        12.57654        -2.76269
   C      -14.16134        11.92161        -3.09574
  Br      -15.99946        14.08962        -3.61847
   C      -11.95344         7.72738        -1.29862
   O      -10.98498         7.48510        -2.01291
   C      -12.38780         6.93745        -0.13670
   C      -11.67911         5.83959         0.27921
   N      -10.60797         5.44367        -0.42490
   C       -9.76911         4.42058        -0.15582
   S       -9.82500         3.54778         1.34091
   C       -8.48799         2.58216         0.79735
   N       -8.01067         1.58112         1.66020
   O       -7.07422         0.90913         1.27555
   O       -8.57644         1.46934         2.73132
   C       -8.03804         2.90704        -0.45078
   C       -8.76483         3.96766        -1.03415
   C       -8.59185         4.49591        -2.34949
   C       -7.64399         4.08940        -3.23267
   C       -7.51108         4.52898        -4.57242
   C       -6.47549         4.16685        -5.41955
   C       -6.65009         4.74724        -6.69069
   C       -7.81373         5.50204        -6.69944
   C       -8.40401         5.38647        -5.35519
   S       -9.81257         6.08771        -4.91489
   C       -8.37268         6.23800        -7.75429
   S       -9.91191         7.05022        -7.63094
   C       -9.86432         7.67645        -9.27135
   C       -8.69213         7.22895        -9.89812
   C       -7.86193         6.45395        -9.03962
   N       -6.74605         6.11532        -9.72839
   C       -6.84530         6.65602       -10.98554
   N       -5.79936         6.43995       -11.90709
   O       -4.85870         5.77611       -11.50200
   O       -5.90479         6.91436       -13.01595
   C       -8.02800         7.35097       -11.13488
   C      -10.90448         8.42024        -9.83284
   C      -11.91303         9.08153        -9.17954
   C      -12.02579         9.54314        -7.81987
   C      -10.99918         9.99765        -7.02683
   C      -11.21161        10.62588        -5.78903
   N      -11.35560        11.15690        -4.78041
   C       -9.64769         9.99663        -7.42435
   N       -8.54198        10.03952        -7.73115
   C      -13.44308         9.76697        -7.55509
   C      -14.14275         9.72785        -8.78749
   C      -13.19690         9.37332        -9.86924
   O      -13.41966         9.28522       -11.05429
   C      -15.49283         9.96679        -8.87069
   C      -16.18426        10.23001        -7.68190
   C      -15.48110        10.21744        -6.45395
   C      -14.11219         9.99452        -6.36982
   S      -16.53934        10.51879        -5.11104
   C      -17.89063        10.68509        -6.20114
   C      -17.56780        10.50840        -7.50416
  Br      -19.58669        11.07526        -5.50563
   H      -12.11060         9.96601        -3.06165
   H      -15.73355         9.52459         0.37633
   H      -13.49029        12.21984        -3.88100
   H      -11.94571         5.26162         1.15482
   H      -10.42374         6.04598        -1.25456
   H       -7.22112         2.38595        -0.91459
   H       -9.28750         5.25761        -2.66530
   H       -6.90308         3.36301        -2.92482
   H       -5.65070         3.53244        -5.15069
   H       -5.97875         4.59693        -7.51469
   H       -5.93286         5.60136        -9.42501
   H       -8.34917         7.86658       -12.01636
   H      -10.97519         8.40797       -10.91601
   H      -16.00328         9.94979        -9.82066
   H      -13.61771         9.98213        -5.41271
   H      -18.27573        10.57383        -8.30998
*
