# ORCA input file
# SCF done       -198.916073135711          0.000779637222
! CAM-B3LYP def2-SVP def2/J RIJCOSX Grid4 TightSCF
%maxcore 5000
%tddft
    Mode sTDDFT
    Ethresh 5.0
    maxcore 5000
end

%pal
  nprocs 6
  end
* xyz 0 1
   C       -9.06469        -0.89704         3.21360
   C       -8.86254        -2.00313         2.42473
   C       -9.29360        -3.30177         2.75991
   N       -9.62646        -4.37886         2.97950
   C       -8.16558        -1.99350         1.19944
   N       -7.58440        -2.06378         0.21088
   C       -9.67657        -0.89311         4.53774
   C       -9.58365         0.41491         5.07224
   C      -10.07272         0.74257         6.31247
   C      -10.67926        -0.27070         7.06374
   C      -10.76896        -1.57336         6.52003
   C      -10.27598        -1.90444         5.26331
   S      -11.56221        -2.66891         7.61128
   C      -11.75721        -1.37971         8.76855
   C      -11.25595        -0.18971         8.36092
  Br      -12.60444        -1.72604        10.40612
   C       -8.92135         1.30334         4.09208
   O       -8.75462         2.50121         4.20668
   C       -8.62578         0.44757         2.92468
   C       -8.24223         0.91128         1.68718
   C       -7.64910         2.14501         1.39443
   S       -7.92882         2.83546        -0.17994
   C       -7.03825         4.26960         0.18792
   C       -6.47205         4.18633         1.47360
   C       -6.79599         2.97431         2.14558
   C       -6.18268         2.68668         3.37688
   C       -5.36166         3.60194         3.97412
   C       -4.69894         3.33292         5.28421
   C       -5.11196         4.85607         3.33616
   O       -4.30113         5.69014         4.03530
   C       -3.98610         6.94638         3.48821
   C       -5.63860         5.13230         2.09862
   C       -6.94209         5.34403        -0.73217
   C       -7.42050         5.29313        -1.99707
   C       -7.37090         6.32215        -2.99488
   C       -7.34279         7.65647        -2.83648
   C       -7.45148         8.38063        -1.53385
   C       -7.32331         8.54663        -4.05800
   N       -8.64399         9.07405        -4.31188
   C       -9.02420        10.34240        -4.09213
   C      -10.32238        10.76052        -4.10754
   C      -10.71111        12.10031        -3.97415
   C      -12.01673        12.52725        -3.98101
   C      -12.49481        13.85381        -3.89602
   C      -13.85386        13.96410        -3.94020
   C      -14.52377        12.72687        -4.05025
   S      -13.37855        11.41673        -4.10989
   C      -15.89060        12.49495        -4.09878
   C      -16.93637        13.43485        -4.08997
   C      -18.18168        12.87102        -4.13864
   C      -18.17548        11.46257        -4.17499
   S      -16.53624        10.86830        -4.17581
   C      -19.28286        10.62783        -4.20285
   C      -19.19485         9.24762        -4.15381
   C      -20.22297         8.31978        -4.15646
   C      -19.96995         6.97387        -3.61168
   O      -18.89496         6.48367        -3.32896
   C      -21.30724         6.36425        -3.43121
   C      -21.63907         5.17030        -2.86315
   C      -23.00421         4.81835        -2.75113
   C      -23.99743         5.71651        -3.23549
   C      -25.35604         5.36590        -3.11101
   C      -25.71197         4.17931        -2.53327
   C      -24.72934         3.29216        -2.05577
   C      -23.40257         3.60312        -2.16264
   F      -25.10633         2.13348        -1.49029
   F      -27.00808         3.84919        -2.41463
   C      -23.61988         6.94339        -3.83201
   C      -22.29335         7.26117        -3.93010
   C      -21.61032         8.42919        -4.49389
   C      -22.19473         9.33718        -5.35104
   C      -21.48321        10.27960        -6.11629
   N      -20.95517        11.03412        -6.80396
   C      -23.56813         9.35865        -5.65345
   N      -24.68415         9.44075        -5.91697
   H       -9.98972         1.74849         6.69317
   H      -10.37407        -2.90950         4.88830
   H      -11.29216         0.70937         8.94857
   H       -8.47984         0.29655         0.82631
   H       -6.34286         1.72722         3.84111
   H       -4.94935         2.34090         5.64859
   H       -5.01517         4.07389         6.01662
   H       -3.61814         3.41999         5.18295
   H       -3.35193         7.43768         4.22432
   H       -4.88483         7.54971         3.32469
   H       -3.43592         6.84784         2.54658
   H       -5.41344         6.05352         1.58706
   H       -6.41250         6.21779        -0.38567
   H       -7.85348         4.35663        -2.32892
   H       -7.38796         5.94508        -4.01144
   H       -7.97206         7.77905        -0.79280
   H       -7.99456         9.31541        -1.67043
   H       -6.46159         8.62745        -1.14769
   H       -6.99365         7.98039        -4.93535
   H       -6.64101         9.38666        -3.90708
   H       -9.37654         8.38619        -4.42099
   H       -8.22163        11.05256        -3.93986
   H      -11.10575        10.02672        -4.24381
   H       -9.94092        12.85330        -3.86817
   H      -11.82099        14.68829        -3.81005
   H      -14.38757        14.89589        -3.89110
   H      -16.75447        14.49394        -4.05071
   H      -19.10189        13.42723        -4.14884
   H      -20.24792        11.11228        -4.22035
   H      -18.20983         8.82011        -3.98686
   H      -20.87266         4.50324        -2.49862
   H      -26.12180         6.03347        -3.47418
   H      -22.66122         2.91284        -1.79142
   H      -24.39458         7.60460        -4.18582
*
