# ORCA input file
# SCF done       -162.125014414983          0.000794858749
! CAM-B3LYP def2-SVP def2/J RIJCOSX Grid4 TightSCF
%maxcore 5000
%tddft
    Mode sTDDFT
    Ethresh 5.0
    maxcore 5000
end

%pal
  nprocs 6
  end
* xyz 0 1
   C       -3.61425       -14.93858        -5.39821
   C       -4.33743       -15.69535        -4.51913
   F       -4.51632       -17.00333        -4.74573
   C       -4.90342       -15.11258        -3.36788
   F       -5.60897       -15.87784        -2.52423
   C       -4.73869       -13.77980        -3.11161
   C       -4.00091       -12.97349        -3.99921
   C       -3.42649       -13.56183        -5.16310
   C       -2.67964       -12.77241        -6.06752
   C       -2.51346       -11.43601        -5.81537
   C       -3.09507       -10.85638        -4.65288
   C       -3.82109       -11.59204        -3.76201
   C       -2.78358        -9.41731        -4.61664
   O       -3.19071        -8.59954        -3.81313
   C       -1.97181        -9.15423        -5.82034
   C       -1.80050       -10.39512        -6.54731
   C       -1.04084       -10.58498        -7.67412
   C       -0.89698       -11.82448        -8.33046
   N       -0.74867       -12.80219        -8.91349
   C       -0.29083        -9.57624        -8.31104
   N        0.34624        -8.79376        -8.86036
   C       -1.62556        -7.90886        -6.27222
   N       -1.60418        -6.76470        -5.55633
   C       -1.39210        -6.58414        -4.21666
   S       -0.58633        -7.76064        -3.23846
   C       -0.52897        -6.62054        -1.93865
   N        0.04352        -7.04091        -0.73260
   O        0.08492        -6.24312         0.18535
   O        0.46586        -8.18431        -0.69794
   C       -1.08421        -5.40669        -2.24865
   C       -1.59638        -5.36909        -3.55704
   C       -2.24396        -4.20516        -4.11786
   C       -3.20955        -4.22219        -5.05172
   C       -3.86811        -3.05420        -5.59056
   C       -3.32126        -1.86578        -5.87369
   C       -1.86485        -1.54125        -5.77865
   C       -4.17662        -0.72902        -6.38900
   N       -5.53265        -0.78590        -5.91153
   C       -6.65804        -0.85643        -6.65475
   C       -6.76258        -0.83318        -8.01003
   C       -8.00773        -0.87820        -8.66544
   C       -8.17718        -0.84161       -10.02264
   C       -9.40215        -0.86517       -10.73398
   C       -9.26948        -0.80554       -12.08581
   C       -7.92702        -0.73355       -12.53150
   S       -6.83604        -0.74396       -11.16627
   C       -7.47681        -0.66366       -13.83262
   C       -8.25126        -0.64153       -15.01713
   C       -7.52268        -0.56937       -16.16193
   C       -6.11865        -0.53101       -15.95077
   S       -5.76839        -0.58771       -14.23389
   C       -5.12033        -0.46204       -16.88154
   C       -5.33707        -0.41462       -18.27936
   N       -6.46508        -0.42280       -18.94234
   C       -6.11621        -0.36126       -20.26402
   C       -4.74375        -0.31748       -20.34479
   O       -4.24692        -0.35008       -19.10508
   C       -7.10174        -0.34798       -21.33172
   O       -6.84679        -0.29453       -22.50887
   H       -3.18633       -15.40117        -6.27383
   H       -5.17750       -13.34881        -2.22540
   H       -2.25978       -13.24602        -6.94014
   H       -4.24849       -11.12824        -2.88614
   H       -1.37036        -7.77528        -7.31588
   H       -1.64790        -5.89604        -6.08155
   H       -1.13555        -4.59364        -1.54743
   H       -1.95245        -3.26626        -3.66970
   H       -3.62163        -5.17008        -5.37592
   H       -4.92041        -3.19451        -5.80901
   H       -1.25801        -2.44239        -5.76686
   H       -1.65411        -0.97271        -4.87277
   H       -1.56959        -0.92606        -6.62756
   H       -4.18275        -0.74042        -7.48106
   H       -3.72268         0.21953        -6.07255
   H       -5.63053        -0.84507        -4.91061
   H       -7.56567        -0.92080        -6.06810
   H       -5.88767        -0.77107        -8.64008
   H       -8.90133        -0.93709        -8.05719
   H      -10.34448        -0.92336       -10.21757
   H      -10.09369        -0.81126       -12.77583
   H       -9.32569        -0.67878       -14.98785
   H       -7.91502        -0.54141       -17.16139
   H       -4.08858        -0.44163       -16.56649
   H       -4.07071        -0.26567       -21.17552
   H       -8.14029        -0.39737       -20.95745
*
