# ORCA input file
# SCF done       -216.196456170754          0.000529816167
! CAM-B3LYP def2-SVP def2/J RIJCOSX Grid4 TightSCF
%maxcore 5000
%tddft
    Mode sTDDFT
    Ethresh 5.0
    maxcore 5000
end

%pal
  nprocs 6
  end
* xyz 0 1
   C        7.40394         1.45902         2.34301
   C        8.23183         0.23921         1.95537
   C        7.91770        -0.55473         0.86160
   C        8.73279        -1.62442         0.52981
   C        9.86604        -1.89595         1.27538
   C       10.19077        -1.09101         2.35513
   C        9.37797        -0.02597         2.69520
   C        7.06584         1.45132         3.82497
   C        7.08576         2.62401         4.56513
   C        6.71612         2.60609         5.89899
   C        6.31045         1.42423         6.49456
   C        6.28862         0.25216         5.75718
   C        6.66702         0.26171         4.42603
   C        6.12767         1.59649         1.54115
   C        6.22348         2.71351         0.75496
   C        7.50483         3.32116         1.03629
   C        8.04463         4.45442         0.49976
   C        7.39699         5.21396        -0.49324
   N        6.91206         5.86550        -1.30245
   C        9.30231         4.92319         0.93337
   N       10.32055         5.30794         1.29315
   O        8.15704         2.61787         1.98344
   C        5.21973         3.25979        -0.05814
   N        4.34735         3.68298        -0.67046
   N        5.11266         0.72472         1.71820
   C        4.09305         0.45287         0.83511
   S        4.37467         0.41247        -0.87406
   C        2.74748        -0.13003        -1.10175
   N        2.32136        -0.36750        -2.42133
   O        1.17227        -0.72317        -2.58466
   O        3.15080        -0.21065        -3.29642
   C        2.04552        -0.28341         0.05892
   C        2.80862         0.04376         1.20382
   C        2.35212         0.01594         2.55922
   C        1.12580        -0.41790         2.95220
   C        0.67907        -0.40588         4.28606
   C       -0.55979        -0.84274         4.67918
   C       -1.09228        -0.84113         5.99410
   C       -2.35767        -1.33105         6.08662
   C       -2.89952        -1.75550         4.85017
   S       -1.74426        -1.50311         3.56223
   C       -4.14347        -2.30556         4.61648
   C       -5.16976        -2.55677         5.55809
   C       -6.28833        -3.12184         5.03137
   C       -6.20528        -3.35231         3.62952
   S       -4.65044        -2.80896         3.01785
   C       -7.12417        -3.91154         2.78652
   N       -8.33233        -4.35924         3.22013
   C       -9.30075        -4.93082         2.48409
   S       -9.14148        -5.15847         0.77181
   C      -10.73262        -5.87151         0.73678
   N      -11.21061        -6.30441        -0.50332
   O      -12.32052        -6.80409        -0.54026
   O      -10.46797        -6.14600        -1.45823
   C      -11.34091        -5.92853         1.95817
   C      -10.54060        -5.39776         2.98906
   C      -10.86191        -5.31460         4.36656
   C      -12.01189        -5.68595         4.99036
   C      -12.19349        -5.52815         6.38259
   C      -11.38002        -4.93456         7.33043
   C      -12.06441        -4.99108         8.59802
   C      -11.62988        -4.52349         9.81094
   C      -10.37776        -3.90689         9.97414
   N       -9.36277        -3.39892        10.14478
   C      -12.43412        -4.63921        10.96181
   N      -13.08873        -4.72432        11.89960
   O      -13.25926        -5.57677         8.45583
   C      -13.44433        -5.99099         7.09266
   C      -13.63848        -7.50038         7.11911
   C      -14.75233        -7.99038         7.79104
   C      -14.96257        -9.35316         7.88370
   C      -14.06364       -10.23557         7.30680
   C      -12.94917        -9.74937         6.64731
   C      -12.72944        -8.38453         6.55807
   C      -14.65150        -5.28929         6.48446
   C      -15.03268        -4.03476         6.93783
   C      -16.10725        -3.38437         6.35696
   C      -16.79609        -3.97470         5.31202
   C      -16.41301        -5.22393         4.85379
   C      -15.34553        -5.88215         5.43730
   C      -10.12354        -4.35880         7.12702
   N       -9.09322        -3.91105         6.87578
   H        7.04822        -0.34734         0.25393
   H        8.48024        -2.23917        -0.32057
   H       10.50035        -2.72796         1.01035
   H       11.08083        -1.28937         2.93222
   H        9.62910         0.61121         3.52959
   H        7.40743         3.54539         4.10430
   H        6.74490         3.52033         6.47147
   H        6.01990         1.41352         7.53390
   H        5.98423        -0.67528         6.21857
   H        6.68979        -0.66498         3.86720
   H        5.14453         0.17245         2.56981
   H        1.02114        -0.60630         0.06885
   H        3.03336         0.39088         3.31267
   H        0.43099        -0.79705         2.21592
   H        1.34154        -0.02181         5.05058
   H       -0.51944        -0.47319         6.82685
   H       -2.91425        -1.40163         7.00347
   H       -5.05814        -2.31356         6.59892
   H       -7.15302        -3.36771         5.62316
   H       -6.91539        -4.02347         1.73368
   H       -8.51208        -4.24085         4.21278
   H      -12.32309        -6.34255         2.09280
   H      -10.08859        -4.91004         4.99832
   H      -12.83353        -6.11282         4.43532
   H      -15.44500        -7.29616         8.24228
   H      -15.82909        -9.72631         8.40785
   H      -14.22892       -11.30002         7.37614
   H      -12.24025       -10.43144         6.20243
   H      -11.84936        -8.01956         6.04811
   H      -14.50402        -3.56947         7.75659
   H      -16.40311        -2.41310         6.72334
   H      -17.63174        -3.46468         4.85755
   H      -16.94823        -5.69201         4.04155
   H      -15.06377        -6.86544         5.08896
*
