# ORCA input file
# SCF done       -173.169640072562          0.000892286289
! CAM-B3LYP def2-SVP def2/J RIJCOSX Grid4 TightSCF
%maxcore 5000
%tddft
    Mode sTDDFT
    Ethresh 5.0
    maxcore 5000
end

%pal
  nprocs 6
  end
* xyz 0 1
   C       -8.53941        -6.50203         4.58635
   C       -7.52550        -6.14621         5.38840
   C       -7.46316        -5.02584         6.28052
   C       -6.30228        -4.92065         6.96684
   C       -5.35270        -5.93719         6.67993
   S       -6.00568        -7.05008         5.48779
   C       -4.09699        -6.08460         7.22041
   C       -3.46883        -5.25813         8.18390
   C       -2.21506        -5.66056         8.52438
   C       -1.77005        -6.82749         7.85746
   S       -3.02850        -7.39997         6.76841
   C       -0.55378        -7.44642         8.00609
   C       -0.14957        -8.59947         7.32267
   C        1.07620        -9.18086         7.48931
   C        1.51209       -10.33383         6.81298
   O        0.72247       -10.98971         5.91820
   C        1.41441       -12.05161         5.42925
   C        2.67586       -12.08064         6.02095
   C        2.74119       -10.99215         6.90149
   O        3.78267       -10.63582         7.68887
   O        3.69821       -12.96816         5.83143
   C        0.84034       -12.92890         4.47948
   C       -0.42982       -12.81781         4.00394
   C       -1.00305       -13.70806         3.07131
   C       -2.29154       -13.61877         2.64227
   C       -2.91392       -14.50046         1.73324
   N       -4.24761       -14.38203         1.39005
   C       -4.64638       -15.34451         0.52257
   C       -3.54689       -16.14320         0.25832
   C       -2.46187       -15.61215         1.01661
   N       -1.36369       -16.37233         0.78598
   C       -1.71249       -17.37765        -0.09663
   C       -3.03068       -17.27709        -0.44461
   N       -3.76622       -18.15865        -1.22972
   C       -4.84702       -17.65039        -2.06147
   C       -6.16213       -18.30241        -1.64072
   C       -7.29351       -17.98048        -2.61304
   N       -8.47712       -18.71279        -2.19507
   S       -8.44194       -20.19676        -3.06178
   N       -7.83550       -19.47090        -4.49758
   C       -6.92221       -18.41779        -4.08092
   C       -5.49357       -18.95001        -4.15688
   C       -4.49990       -17.96122        -3.54640
   N       -3.13417       -18.46353        -3.53244
   S       -2.98312       -19.39480        -2.07605
   C       -2.56490       -18.90241        -4.72144
   C       -1.73005       -19.93872        -4.79562
   N       -1.08088       -20.38787        -5.94051
   C       -0.73367       -19.49309        -7.03294
   C       -1.52580       -19.87213        -8.28258
   C       -1.02348       -19.14154        -9.52551
   N       -1.76996       -19.63465       -10.67076
   S       -0.84526       -20.93728       -11.30528
   N        0.65890       -20.15990       -11.00893
   C        0.51002       -19.41323        -9.76896
   C        1.11587       -20.22734        -8.62857
   C        0.80553       -19.59234        -7.27325
   N        1.31527       -20.36814        -6.16709
   S        0.13430       -21.56059        -5.80905
   C        2.62548       -20.43910        -5.78237
   C        3.64236       -19.73882        -6.27604
   H       -9.44524        -5.92270         4.55828
   H       -8.48257        -7.36736         3.95221
   H       -8.29332        -4.34729         6.36766
   H       -6.08855        -4.14086         7.67665
   H       -3.95889        -4.39350         8.59468
   H       -1.58766        -5.15501         9.23797
   H        0.14164        -7.00058         8.70617
   H       -0.84696        -9.04584         6.62653
   H        1.79444        -8.75650         8.17597
   H        4.49235       -11.27454         7.54367
   H        3.42231       -13.63293         5.19237
   H        1.47116       -13.73835         4.13230
   H       -1.04209       -12.00667         4.37207
   H       -0.37777       -14.50882         2.70005
   H       -2.90928       -12.81921         3.03238
   H       -4.84763       -13.66660         1.76675
   H       -5.66027       -15.39582         0.17825
   H       -0.45312       -16.26020         1.19336
   H       -0.99301       -18.10760        -0.40904
   H       -4.90987       -16.56748        -1.91652
   H       -6.43524       -17.95269        -0.64487
   H       -6.03648       -19.38349        -1.58133
   H       -7.50563       -16.90624        -2.58264
   H       -9.33795       -18.20692        -2.38213
   H       -8.59587       -19.12513        -5.07476
   H       -7.02506       -17.56442        -4.76079
   H       -5.23780       -19.13268        -5.20200
   H       -5.43386       -19.90636        -3.63599
   H       -4.50214       -17.03430        -4.13465
   H       -2.82285       -18.28837        -5.57237
   H       -1.55018       -20.54850        -3.92183
   H       -0.98361       -18.47070        -6.73010
   H       -2.57949       -19.63481        -8.13198
   H       -1.45737       -20.94709        -8.45016
   H       -1.20348       -18.06695        -9.41454
   H       -1.92004       -18.92117       -11.37821
   H        0.92061       -19.57045       -11.79302
   H        1.04659       -18.46190        -9.85691
   H        2.19586       -20.28842        -8.76682
   H        0.72389       -21.24427        -8.66151
   H        1.25569       -18.59457        -7.22177
   H        2.77241       -21.13005        -4.96342
   H        3.53996       -19.04843        -7.09361
   H        4.62098       -19.83431        -5.84563
*
