# ORCA input file
# SCF done       -198.598751929324          0.000591775895
! CAM-B3LYP def2-SVP def2/J RIJCOSX Grid4 TightSCF
%maxcore 5000
%tddft
    Mode sTDDFT
    Ethresh 5.0
    maxcore 5000
end

%pal
  nprocs 6
  end
* xyz 0 1
   C       -2.17289       -13.42923        -0.57210
   C       -2.91270       -13.24362         0.55843
   S       -2.31653       -11.99210         1.58806
   C       -1.02708       -11.70735         0.49833
   C       -1.08306       -12.54355        -0.61006
   C        0.03153       -12.21871        -1.50738
   O        0.29811       -12.68197        -2.59156
   C        0.82865       -11.18741        -0.76535
   C        0.06343       -10.77220         0.40059
   C        0.15731        -9.62007         1.14037
   C       -0.75542        -9.35294         2.18330
   N       -1.49649        -9.12814         3.02942
   C        1.05708        -8.56796         0.89674
   N        1.74300        -7.66345         0.72214
   C        2.07545       -10.88339        -1.21354
   C        3.13196       -10.23933        -0.53031
   C        3.34708       -10.13029         0.83447
   C        4.51513        -9.43785         1.12965
   C        5.20751        -9.01415        -0.02174
   S        4.43418        -9.49841        -1.45702
   C        6.34668        -8.27745         0.38874
   C        6.37390        -8.23328         1.79294
   C        5.22107        -8.95832         2.30473
   C        4.84800        -9.12507         3.60580
   C        3.67499        -9.83071         3.94793
   N        2.72052       -10.40879         4.21218
   C        5.60216        -8.61034         4.68107
   N        6.21725        -8.20143         5.55788
   C        7.45070        -7.50036         2.29234
   C        8.23966        -6.98644         1.28068
   S        7.64750        -7.42057        -0.31332
   C        9.39183        -6.16493         1.41513
   C       10.15158        -5.62485         0.41273
   C       11.20155        -4.80970         0.88820
   C       11.22817        -4.74688         2.29259
   S        9.96388        -5.70070         3.00810
   C       12.14808        -3.99793         3.01701
   O       11.99850        -4.09382         4.36216
   C       12.97302        -3.64022         5.26935
   C       13.06588        -3.23830         2.26604
   C       13.05082        -3.31815         0.83336
   C       12.15260        -4.09692         0.12360
   O       12.03406        -4.27477        -1.21394
   C       12.93782        -3.67989        -2.11610
   S       14.27445        -2.26328         0.14279
   C       14.75544        -1.70927         1.72437
   C       14.04305        -2.31647         2.71881
   C       15.75595        -0.70989         1.85555
   C       16.42714        -0.06408         0.83435
   C       17.31129         0.89959         1.31802
   C       17.31676         0.98181         2.72015
   S       16.23427        -0.12901         3.44202
   C       18.21835         1.99855         3.11259
   C       18.78267         2.57104         1.94992
   C       18.24677         1.88221         0.78788
   C       18.55793         2.08647        -0.52362
   C       17.95169         1.33783        -1.55541
   N       17.45760         0.73018        -2.39303
   C       19.51584         3.03042        -0.95460
   N       20.30220         3.77037        -1.33847
   C       19.65007         3.62056         2.22426
   C       19.77000         3.85965         3.58636
   S       18.78584         2.73149         4.53529
   C       20.52494         4.78586         4.33593
   C       21.23561         5.88644         3.95274
   C       21.99665         6.70958         4.88963
   C       22.26200         6.49708         6.21907
   C       23.03082         7.42662         6.95211
   N       23.64952         8.18022         7.55691
   C       21.85160         5.39415         6.99112
   N       21.55894         4.52158         7.67882
   C       22.47733         7.83409         4.13712
   C       22.08935         7.75346         2.80807
   C       22.53995         8.83707         2.03664
   C       23.25959         9.71003         2.79843
   S       23.40513         9.24016         4.45397
   C       21.30121         6.53043         2.60684
   O       20.79190         6.15854         1.57267
   H       -2.39645       -14.15363        -1.33301
   H       -3.79788       -13.77217         0.85427
   H        2.29568       -11.23670        -2.21653
   H        2.69932       -10.57729         1.56640
   H        7.66224        -7.33210         3.33294
   H        9.96620        -5.78918        -0.63315
   H       13.97728        -3.96091         4.98045
   H       12.70984        -4.10050         6.22173
   H       12.93934        -2.55257         5.38477
   H       13.96871        -3.98287        -1.91694
   H       12.86594        -2.58950        -2.10487
   H       12.64070        -4.04648        -3.09786
   H       14.22089        -2.06360         3.74640
   H       16.25890        -0.29238        -0.20270
   H       20.16969         4.20516         1.48693
   H       20.51021         4.57900         5.40024
   H       22.34572         8.96086         0.98751
   H       23.72688        10.62233         2.48248
*
