# ORCA input file
# SCF done       -170.800762460339          0.000616169037
! CAM-B3LYP def2-SVP def2/J RIJCOSX Grid4 TightSCF
%maxcore 5000
%tddft
    Mode sTDDFT
    Ethresh 5.0
    maxcore 5000
end

%pal
  nprocs 6
  end
* xyz 0 1
   C        1.57697         0.39039         5.17012
   C        0.63428         0.98207         5.96443
   F       -0.06079         0.23256         6.83692
   C        0.35728         2.35540         5.90733
   C        1.05376         3.13476         5.02648
   C        2.03682         2.57671         4.18289
   C        2.30221         1.17726         4.25424
   C        3.27267         0.59172         3.40830
   C        3.95277         1.37983         2.51906
   C        3.69697         2.78192         2.46665
   C        2.76343         3.37247         3.27051
   C        4.57512         3.40439         1.46228
   O        4.61434         4.55862         1.10938
   C        5.47439         2.30219         0.99757
   C        4.94424         1.04835         1.49922
   C        5.13773        -0.19068         0.95611
   C        5.86173        -0.42969        -0.23144
   N        6.35780        -0.67671        -1.23636
   C        4.53344        -1.36556         1.45212
   N        4.07438        -2.34863         1.82523
   C        6.62256         2.61596         0.34797
   C        7.75139         1.78981         0.12694
   N        8.01289         0.67034         0.74281
   C        9.15443         0.14460         0.31742
   C        9.83701         0.86755        -0.68928
   S        8.97592         2.29527        -1.06504
   N       10.96110         0.32336        -1.14182
   C       11.20245        -0.80187        -0.53210
   S       10.01873        -1.29008         0.69528
   C       12.31675        -1.62277        -0.82148
   N       12.61600        -2.71406        -0.17781
   C       13.70309        -3.27888        -0.69497
   C       14.28631        -2.61113        -1.79703
   S       13.39491        -1.19150        -2.16348
   N       15.36485        -3.18230        -2.32309
   C       15.66571        -4.27435        -1.68046
   S       14.60127        -4.69456        -0.32519
   C       16.75478        -5.10905        -2.02139
   N       17.11456        -6.16044        -1.34300
   C       18.16034        -6.74826        -1.91477
   C       18.64708        -6.14275        -3.09747
   S       17.71516        -4.75069        -3.47002
   N       19.67436        -6.74338        -3.68292
   C       20.04263        -7.80321        -3.01757
   S       19.09819        -8.12877        -1.54275
   C       21.12669        -8.64975        -3.35723
   C       21.78310        -8.71009        -4.54227
   C       23.14082        -9.33693        -4.59966
   O       23.63907       -10.04866        -3.76109
   C       23.73448        -8.84249        -5.85354
   C       25.00386        -9.01739        -6.32757
   C       25.36651        -8.43123        -7.56006
   C       24.40380        -7.66185        -8.27797
   C       24.77350        -7.07700        -9.50484
   C       26.04174        -7.26170        -9.98119
   C       27.00207        -8.01492        -9.29086
   C       26.66110        -8.58806        -8.09769
   F       26.39578        -6.70678       -11.15289
   C       23.09619        -7.49851        -7.76482
   C       22.76294        -8.08764        -6.57486
   C       21.50067        -8.13156        -5.84272
   C       20.26440        -7.90591        -6.37930
   C       19.05224        -8.23870        -5.73774
   N       18.04181        -8.56440        -5.30219
   C       20.05582        -7.41966        -7.68750
   N       19.83670        -7.01743        -8.73939
   H        1.76066        -0.67043         5.23825
   H       -0.39827         2.76571         6.55839
   H        0.85816         4.19456         4.96389
   H        3.45894        -0.46742         3.48898
   H        2.58014         4.43465         3.20781
   H        6.71262         3.64163         0.00732
   H       21.51850        -9.26810        -2.55741
   H       25.72219        -9.59820        -5.76855
   H       24.05913        -6.49398       -10.06478
   H       27.98691        -8.12557        -9.71614
   H       27.38321        -9.17278        -7.54806
   H       22.39076        -6.90346        -8.32282
*
