# ORCA input file
# SCF done       -218.980464140788          0.000595861609
! CAM-B3LYP def2-SVP def2/J RIJCOSX Grid4 TightSCF
%maxcore 5000
%tddft
    Mode sTDDFT
    Ethresh 5.0
    maxcore 5000
end

%pal
  nprocs 6
  end
* xyz 0 1
   C       -6.12254         1.14768         7.89452
   C       -7.36604         1.68991         8.18377
   C       -8.52468         0.93694         8.05529
   C       -8.47275        -0.38664         7.64444
   C       -7.23588        -0.93955         7.35803
   C       -6.05549        -0.17118         7.47328
   C       -4.91886        -0.99099         7.07425
   C       -3.60036        -0.63469         7.17310
   C       -3.15199         0.59801         7.69484
   N       -2.71549         1.57792         8.10269
   C       -2.50062        -1.44298         6.81590
   N       -1.55847        -2.04341         6.54982
   C       -5.46461        -2.23896         6.54917
   C       -6.87092        -2.28224         6.93450
   C       -7.62959        -3.40379         7.13779
   C       -7.16663        -4.72260         6.95679
   N       -6.83076        -5.81630         6.86044
   C       -8.94364        -3.38217         7.65275
   N      -10.01048        -3.43142         8.07165
   C       -4.76075        -3.10916         5.76114
   C       -5.27102        -4.08116         4.87693
   C       -6.53103        -4.17719         4.29796
   C       -6.62608        -5.24596         3.42096
   C       -5.42506        -5.98195         3.31518
   S       -4.18601        -5.33804         4.28481
   C       -5.63317        -7.04097         2.40017
   C       -6.95765        -6.97875         1.92939
   C       -7.62824        -5.85659         2.56562
   C       -8.92669        -5.46531         2.41748
   C       -9.82046        -6.13631         1.55696
   N      -10.54137        -6.67860         0.84948
   C       -9.44281        -4.35803         3.12341
   N       -9.84183        -3.45191         3.70193
   C       -7.25119        -7.97430         0.99977
   C       -6.16216        -8.79188         0.75727
   S       -4.75588        -8.33125         1.70112
   C       -6.09048        -9.87297        -0.15978
   C       -5.02800       -10.69059        -0.42606
   C       -5.27889       -11.63749        -1.44211
   C       -6.59234       -11.54056        -1.97161
   S       -7.47465       -10.26137        -1.15759
   C       -7.01783       -12.36583        -3.00021
   O       -8.22248       -12.41438        -3.61098
   C       -9.27171       -11.56936        -3.19616
   C       -6.06601       -13.28329        -3.50120
   C       -4.75606       -13.38758        -2.96404
   C       -4.33903       -12.57922        -1.91966
   O       -3.14130       -12.54997        -1.28969
   C       -2.12955       -13.46562        -1.64030
   S       -3.85187       -14.61185        -3.83613
   C       -5.20563       -14.93775        -4.89469
   C       -6.29004       -14.16511        -4.57983
   C       -5.08410       -15.88318        -5.94830
   C       -6.02326       -16.17090        -6.92490
   C       -5.55514       -17.11911        -7.83103
   C       -4.25166       -17.56430        -7.53898
   S       -3.60844       -16.80847        -6.14803
   C       -3.86361       -18.50860        -8.51741
   C       -4.92516       -18.65375        -9.43863
   C       -6.02248       -17.79569        -9.03032
   C       -7.23752       -17.67502        -9.63967
   C       -7.55174       -18.41413       -10.79952
   N       -7.78582       -19.01934       -11.74503
   C       -8.23872       -16.80855        -9.15457
   N       -9.04567       -16.09668        -8.75852
   C       -4.64891       -19.56621       -10.44439
   C       -3.38976       -20.13829       -10.30635
   S       -2.53131       -19.48953        -8.90878
   C       -2.72051       -21.05840       -11.13771
   C       -3.25667       -21.87832       -12.09386
   C       -2.48778       -22.45360       -13.19345
   C       -1.12763       -22.58713       -13.27844
   C       -0.20201       -22.22569       -12.27691
   N        0.60782       -21.96026       -11.50704
   C       -0.45728       -23.15572       -14.38289
   N        0.15392       -23.60487       -15.24423
   C       -3.44997       -22.86609       -14.20697
   C       -4.75480       -22.71466       -13.68603
   C       -5.86548       -23.00583       -14.46001
   C       -5.66637       -23.45748       -15.75612
   C       -4.38602       -23.62165       -16.26564
   C       -3.26669       -23.32832       -15.50076
   C       -4.64974       -22.25259       -12.31070
   C       -5.61265       -22.41619       -11.35117
   C       -6.90523       -22.91994       -11.61161
   N       -7.96669       -23.32944       -11.75858
   C       -5.40661       -22.20085        -9.97370
   N       -5.28490       -22.07036        -8.83952
   H       -5.23537         1.75134         7.99172
   H       -7.43014         2.71733         8.50793
   H       -9.48116         1.38573         8.27498
   H       -9.37915        -0.95979         7.53608
   H       -3.68374        -3.00828         5.74683
   H       -7.31675        -3.46643         4.47916
   H       -8.19903        -8.10941         0.51015
   H       -4.08150       -10.61962         0.07819
   H      -10.11863       -11.83587        -3.82665
   H       -9.02645       -10.51538        -3.34884
   H       -9.53499       -11.73663        -2.14883
   H       -1.30432       -13.25358        -0.96203
   H       -1.79421       -13.32330        -2.67085
   H       -2.45459       -14.49966        -1.50044
   H       -7.22975       -14.20586        -5.09721
   H       -6.98827       -15.70166        -6.96925
   H       -5.30373       -19.77783       -11.26999
   H       -1.64306       -21.04977       -11.03998
   H       -6.86393       -22.87039       -14.07713
   H       -6.52112       -23.68129       -16.37570
   H       -4.25500       -23.97744       -17.27612
   H       -2.28088       -23.45358       -15.91725
*
