# ORCA input file
# SCF done       -219.702553440756          0.000959646408
! CAM-B3LYP def2-SVP def2/J RIJCOSX Grid4 TightSCF
%maxcore 5000
%tddft
    Mode sTDDFT
    Ethresh 5.0
    maxcore 5000
end

%pal
  nprocs 6
  end
* xyz 0 1
   C       -1.99345        -3.12677        -0.42461
   C       -2.60916        -2.69245        -1.55900
   C       -2.57315        -1.28814        -1.65526
   C       -1.91868        -0.69519        -0.56993
   S       -1.35496        -1.84826         0.55476
   C       -1.93132         0.71879        -0.74833
   C       -2.59405         1.00882        -1.94783
   C       -3.02136        -0.24365        -2.55899
   C       -3.70185        -0.39446        -3.73141
   C       -4.08379         0.70712        -4.52597
   N       -4.39757         1.59833        -5.17532
   C       -4.06956        -1.66242        -4.22903
   N       -4.37154        -2.69091        -4.63635
   C       -2.66465         2.37856        -2.21212
   C       -2.06289         3.12613        -1.22057
   S       -1.39421         2.12332         0.05762
   C       -1.95725         4.54152        -1.14687
   C       -1.39732         5.28652        -0.14689
   C       -1.47258         6.67995        -0.36738
   C       -0.99161         7.71726         0.45920
   C       -0.24704         7.46013         1.67551
   C       -0.32042         8.13031         2.86288
   C        0.59256         7.64368         3.82348
   C        1.37820         6.61656         3.38834
   S        0.98032         6.22243         1.75062
   C        2.43357         5.87397         4.12191
  Cl        0.69298         8.30526         5.40999
   C       -1.26334         9.01547         0.04350
   C       -1.94909         9.32297        -1.16153
   C       -2.36804         8.28244        -2.02307
   C       -2.14548         6.98598        -1.57837
   S       -2.61259         5.53723        -2.42759
   C       -2.97033         8.57396        -3.30550
   C       -2.60995         9.54673        -4.19621
   C       -3.40310         9.53749        -5.36267
   C       -4.37264         8.57540        -5.37802
   S       -4.30762         7.64213        -3.92279
   C       -5.37841         8.28455        -6.42941
  Cl       -3.15326        10.65253        -6.65122
   C       -2.14604        10.70943        -1.31772
   C       -1.59851        11.46623        -0.31030
   S       -0.80842        10.46394         0.89139
   C       -1.64618        12.87305        -0.14865
   C       -2.33833        13.78767        -0.90920
   C       -2.14959        15.08480        -0.35389
   C       -1.25475        14.88703         0.79490
   C       -0.95734        13.58772         0.93003
   F       -0.82401        15.88537         1.57285
   C       -2.72222        16.27355        -0.74296
   C       -2.59493        17.55461        -0.13204
   C       -3.41293        18.45355        -0.78595
   C       -4.08201        17.74811        -1.88305
   C       -3.66241        16.47409        -1.84863
   F       -4.03054        15.49605        -2.68476
   C       -3.58895        19.80716        -0.41770
   C       -4.49427        20.65346        -0.97827
   C       -4.72576        21.99983        -0.57701
   C       -3.96991        22.73404         0.33125
   C       -4.28958        24.03506         0.71297
   C       -5.42515        24.71399         0.28160
   C       -6.20077        24.02624        -0.69196
   C       -5.83801        22.70140        -1.12679
   N       -6.70148        22.34506        -2.05367
   O       -7.53954        23.36382        -2.20024
   N       -7.25961        24.38825        -1.38938
   C       -5.70237        26.03439         0.74729
   C       -6.89393        26.69252         0.79558
   C       -7.02269        28.14471         0.92428
   C       -6.07348        29.02603         1.36386
   C       -6.27321        30.42078         1.45910
   N       -6.36643        31.55965         1.56555
   C       -4.78637        28.68192         1.83039
   N       -3.72807        28.48031         2.22814
   C       -8.37425        28.48292         0.50092
   C       -9.10103        27.28799         0.29544
   C      -10.41763        27.32622        -0.13206
   C      -11.00692        28.56285        -0.34824
   C      -10.29898        29.73782        -0.13673
   C       -8.97900        29.71218         0.28781
   C       -8.24277        26.16335         0.62788
   C       -8.67069        24.91106         0.97031
   C       -7.84767        23.92143         1.54543
   N       -7.22874        23.09228         2.04306
   C      -10.01177        24.48256         0.87328
   N      -11.08207        24.07373         0.81324
   H       -1.86983        -4.13728        -0.09022
   H       -3.06215        -3.34734        -2.28055
   H       -3.12874         2.82517        -3.07307
   H       -0.96071         4.83859         0.72695
   H       -1.02060         8.91752         3.07080
   H        2.55274         6.29632         5.11642
   H        3.38446         5.93501         3.59387
   H        2.16881         4.82087         4.21453
   H       -1.78036        10.21481        -4.05626
   H       -5.21911         8.94056        -7.28145
   H       -6.38772         8.43908        -6.04868
   H       -5.29991         7.24877        -6.75716
   H       -2.69561        11.14333        -2.13166
   H       -2.94698        13.57308        -1.76434
   H       -0.33455        13.12457         1.67029
   H       -1.97927        17.77175         0.71875
   H       -4.77054        18.18134        -2.58072
   H       -2.96865        20.14817         0.40054
   H       -5.14362        20.29850        -1.76556
   H       -3.09131        22.28499         0.76675
   H       -3.64683        24.53065         1.42633
   H       -4.82102        26.58401         1.05156
   H      -10.97227        26.41931        -0.30925
   H      -12.03038        28.60973        -0.68758
   H      -10.77917        30.68898        -0.30887
   H       -8.44311        30.63472         0.43927
*
