# ORCA input file
# SCF done       -249.219241226644          0.000619746759
! CAM-B3LYP def2-SVP def2/J RIJCOSX Grid4 TightSCF
%maxcore 5000
%tddft
    Mode sTDDFT
    Ethresh 5.0
    maxcore 5000
end

%pal
  nprocs 6
  end
* xyz 0 1
   C       -2.15610         1.17791         0.67512
   C       -3.22724         1.10618        -0.18083
   C       -4.18488         0.07197        -0.15874
   N       -5.00360        -0.73310        -0.19169
   C       -3.51821         2.01360        -1.22017
   N       -3.81966         2.68795        -2.10052
   C       -1.81805         0.17185         1.67619
   C       -0.57196         0.52738         2.26223
   C        0.01032        -0.22741         3.23828
   C       -0.64306        -1.39818         3.68476
   C       -1.89286        -1.76020         3.10595
   C       -2.46989        -0.95727         2.09445
   C       -2.53826        -2.92774         3.56087
   C       -1.97794        -3.70173         4.54045
   C       -0.74734        -3.34373         5.11023
   C       -0.09388        -2.21677         4.69075
   C       -0.08107         1.77971         1.65809
   O        0.96164         2.33695         1.94359
   C       -1.13138         2.20422         0.70721
   C       -1.25450         3.41681         0.07326
   C       -0.35146         4.48461        -0.03980
   C        1.01276         4.59567         0.21452
   C        1.52833         5.85967        -0.01579
   C        0.53632         6.75008        -0.47187
   S       -0.99782         6.01292        -0.63778
   C        0.95990         8.08319        -0.65903
   C        2.30017         8.35042        -0.35193
  Si        3.16112         6.75781         0.14447
   C        3.86015         6.75247         1.86905
   C        3.44976         5.82283         2.82850
   C        4.01617         5.80103         4.08976
   C        5.00658         6.70888         4.42411
   C        5.42829         7.64029         3.48918
   C        4.86198         7.65918         2.22929
   C        4.40859         6.25146        -1.14800
   C        4.10496         6.33398        -2.51109
   C        5.02129         5.95771        -3.47392
   C        6.26907         5.48789        -3.09760
   C        6.59208         5.39717        -1.75421
   C        5.67234         5.77397        -0.79334
   C        2.59683         9.70140        -0.51290
   C        1.52395        10.46641        -0.93778
   S        0.09333         9.48375        -1.16086
   C        1.48185        11.87324        -1.15655
   C        0.38972        12.51376        -1.68785
   C        0.27563        13.89229        -1.86644
   C        1.31453        14.79913        -1.35287
   C        2.49210        14.38795        -0.83804
   S        2.93877        12.73902        -0.66943
   C        0.79705        16.11041        -1.53708
   C       -0.46018        16.03664        -2.13543
   C       -1.02274        17.31395        -2.35130
   C       -0.19792        18.30201        -1.91623
   S        1.28941        17.72996        -1.23748
   C       -0.78570        14.65547        -2.38412
   C       -1.94990        14.24990        -3.08374
   C       -2.11121        13.08115        -3.75718
   C       -3.26759        12.73174        -4.49829
   C       -4.50637        13.35389        -4.56903
   C       -5.39260        12.75155        -5.45564
   C       -4.81154        11.63882        -6.08443
   S       -3.20349        11.33858        -5.55375
   C       -5.60697        10.99086        -7.05150
   C       -6.88710        11.54745        -7.25632
  Si       -7.13352        13.00265        -6.10791
   C       -8.47142        12.70536        -4.84587
   C       -8.51801        13.45046        -3.66396
   C       -9.52705        13.26676        -2.73828
   C      -10.52076        12.33055        -2.97330
   C      -10.49644        11.58191        -4.13773
   C       -9.48426        11.76695        -5.06125
   C       -7.31839        14.64990        -6.96415
   C       -8.48719        15.40402        -6.83509
   C       -8.62763        16.62411        -7.46938
   C       -7.59899        17.12191        -8.25144
   C       -6.43022        16.39213        -8.39469
   C       -6.29356        15.17296        -7.75918
   C       -7.58919        10.86769        -8.23539
   C       -6.89168         9.79966        -8.79664
   S       -5.29218         9.65127        -8.06509
   C       -7.19319         8.89953        -9.82736
   C       -8.34875         8.68650       -10.54195
   C       -8.43180         7.76284       -11.65727
   C       -7.38858         7.16017       -12.31721
   C       -7.54840         6.28158       -13.40798
   N       -7.60018         5.55458       -14.29598
   C       -6.01556         7.34550       -12.05584
   N       -4.87703         7.45354       -11.94025
   C       -9.83603         7.63405       -12.03317
   C      -10.59842         8.51284       -11.21570
   C       -9.70276         9.21583       -10.27824
   O      -10.05685        10.03678        -9.45275
   C      -11.95207         8.62687       -11.34153
   C      -12.62109         7.84811       -12.31270
   C      -11.86648         6.96068       -13.13165
   C      -10.46381         6.86523       -12.97623
   C      -12.54283         6.18706       -14.09636
   C      -13.89928         6.28507       -14.24777
   C      -14.64151         7.15952       -13.44058
   C      -14.01578         7.92423       -12.49362
   H        0.95841         0.06483         3.66521
   H       -3.41999        -1.25639         1.68165
   H       -3.48539        -3.19971         3.11832
   H       -2.48033        -4.59456         4.88169
   H       -0.31974        -3.96501         5.88313
   H        0.85439        -1.93592         5.12575
   H       -2.21466         3.61459        -0.38944
   H        1.59495         3.76408         0.56411
   H        2.68052         5.10721         2.57868
   H        3.68455         5.07103         4.81356
   H        5.44998         6.69138         5.40903
   H        6.20175         8.35057         3.74401
   H        5.19943         8.38502         1.50277
   H        3.13335         6.70025        -2.81239
   H        4.76398         6.02985        -4.52065
   H        6.98654         5.19328        -3.84930
   H        7.56350         5.03082        -1.45523
   H        5.93072         5.70046         0.25357
   H        3.56690        10.12765        -0.32684
   H       -0.45467        11.88891        -1.94527
   H        3.25081        15.07562        -0.49941
   H       -1.98199        17.49849        -2.80007
   H       -0.36581        19.36080        -1.94996
   H       -2.73691        14.99051        -3.13915
   H       -1.29191        12.37929        -3.81403
   H       -4.75172        14.22322        -3.98600
   H       -7.74783        14.18522        -3.47591
   H       -9.54127        13.85427        -1.83142
   H      -11.31077        12.18594        -2.25087
   H      -11.26936        10.85150        -4.32742
   H       -9.47594        11.17922        -5.96733
   H       -9.29300        15.02162        -6.22470
   H       -9.54147        17.18897        -7.35445
   H       -7.70722        18.07526        -8.74772
   H       -5.62466        16.77630        -9.00374
   H       -5.37790        14.60959        -7.87400
   H       -8.58270        11.12298        -8.55454
   H       -6.35695         8.26220       -10.09113
   H      -12.50638         9.30413       -10.70859
   H       -9.92364         6.17962       -13.60915
   H      -11.96643         5.51576       -14.71610
   H      -14.40781         5.68902       -14.99089
   H      -15.71141         7.22425       -13.57268
   H      -14.58226         8.59954       -11.86879
*
