# ORCA input file
# SCF done       -242.423624467271          0.000365348098
! CAM-B3LYP def2-SVP def2/J RIJCOSX Grid4 TightSCF
%maxcore 5000
%tddft
    Mode sTDDFT
    Ethresh 5.0
    maxcore 5000
end

%pal
  nprocs 6
  end
* xyz 0 1
   C       -4.58384        -1.44106         5.70047
   C       -3.49849        -0.60168         5.75435
   C       -2.17715        -1.03866         5.97663
   N       -1.08081        -1.33565         6.14245
   C       -3.58547         0.80107         5.68445
   N       -3.61186         1.94936         5.67299
   C       -4.56147        -2.86250         6.02996
   C       -5.89146        -3.27679         6.33492
   C       -6.17219        -4.55552         6.72009
   C       -5.12071        -5.49692         6.80247
   C       -3.79418        -5.09482         6.47238
   C       -3.53027        -3.75974         6.08721
   C       -2.75808        -6.04747         6.54343
   C       -3.01625        -7.33514         6.92825
   C       -4.32146        -7.72909         7.25783
   C       -5.35125        -6.82960         7.19604
   C       -6.81031        -2.14151         6.13823
   O       -8.00209        -2.09647         6.34386
   C       -5.96837        -1.05299         5.56537
   C       -6.57645         0.02492         4.98810
   C       -6.03427         0.95791         4.08596
   S       -6.75563         2.53948         3.93710
   C       -5.56378         3.09255         2.79796
   C       -4.68379         2.05970         2.51174
   C       -4.94793         0.85262         3.21148
   C       -4.07227        -0.18405         2.81560
   C       -3.15784         0.23975         1.89636
   C       -2.10203        -0.58727         1.30184
   O       -1.94428        -1.75791         1.54574
   O       -1.34706         0.12473         0.46143
   C       -0.28132        -0.56899        -0.16969
   S       -3.32368         1.91449         1.44795
   C       -5.55544         4.41635         2.30081
   C       -4.58327         5.00272         1.50542
   C       -4.89096         6.32637         1.20352
   C       -6.10918         6.75121         1.76398
   S       -6.86754         5.52310         2.67464
   C       -6.32975         8.10124         1.39131
   C       -5.24645         8.53414         0.60789
   C       -4.30851         7.43339         0.45944
   C       -3.13705         7.43305        -0.23771
   C       -2.31361         6.29025        -0.32703
   N       -1.64221         5.36476        -0.41019
   C       -2.67322         8.57455        -0.92616
   N       -2.29457         9.49914        -1.48820
   C       -5.37498         9.85929         0.18914
   C       -6.55009        10.43023         0.63513
   S       -7.50959         9.31802         1.59977
   C       -7.01901        11.74848         0.38452
   C       -8.24083        12.27583         0.69591
   C       -8.40066        13.61926         0.28497
   C       -9.52913        14.44694         0.45554
   C      -10.68562        13.98926         1.19824
   C      -10.70647        13.28161         2.36647
   C      -12.01719        12.99799         2.80650
   C      -13.00205        13.47321         1.98964
   S      -12.30600        14.30521         0.64125
   C      -14.47405        13.35471         2.13796
  Cl      -12.32747        12.12163         4.25729
   C       -9.46241        15.71253        -0.11698
   C       -8.30626        16.20382        -0.78238
   C       -7.15155        15.39538        -0.89689
   C       -7.24949        14.10776        -0.38511
   S       -5.99205        12.90125        -0.44181
   C       -5.92388        15.88309        -1.48667
   C       -5.03446        15.20381        -2.27263
   C       -3.91161        15.98284        -2.61921
   C       -3.91668        17.24505        -2.09569
   S       -5.34699        17.49543        -1.16133
   C       -2.90310        18.31867        -2.24708
  Cl       -2.64602        15.37769        -3.61676
   C       -8.49801        17.50111        -1.29449
   C       -9.73482        18.02948        -1.01860
   S      -10.72549        16.90015        -0.09437
   C      -10.34485        19.26359        -1.34253
   C       -9.89433        20.35370        -2.03151
   C      -10.70553        21.54550        -2.25762
   C      -12.01820        21.73930        -1.91356
   C      -12.73478        22.92779        -2.17413
   N      -13.38324        23.85921        -2.34763
   C      -12.87651        20.82050        -1.27175
   N      -13.66115        20.15311        -0.76270
   C       -9.88052        22.52565        -2.95432
   C       -8.60085        21.95194        -3.18943
   C       -8.56069        20.58618        -2.64353
   O       -7.60810        19.83542        -2.70491
   C       -7.60793        22.63144        -3.83462
   C       -7.85373        23.94772        -4.28305
   C       -9.13140        24.53306        -4.04919
   C      -10.13930        23.80284        -3.37894
   C       -9.36799        25.84793        -4.49972
   C       -8.39131        26.55136        -5.15044
   C       -7.13367        25.97357        -5.38036
   C       -6.87054        24.69952        -4.95580
   H       -7.18427        -4.84809         6.95734
   H       -2.51926        -3.48289         5.83189
   H       -1.75454        -5.73814         6.29109
   H       -2.21536        -8.05731         6.98125
   H       -4.50754        -8.74891         7.55994
   H       -6.35864        -7.12777         7.44748
   H       -7.62707         0.14597         5.23434
   H       -4.11275        -1.20364         3.15114
   H       -0.67141        -1.38764        -0.77807
   H        0.39782        -0.97990         0.57991
   H        0.22805         0.16282        -0.79066
   H       -3.70023         4.48411         1.18152
   H       -4.66399        10.39419        -0.41443
   H       -9.01369        11.70302         1.17549
   H       -9.82884        13.01095         2.92385
   H      -14.90082        12.80123         1.30194
   H      -14.93658        14.34070         2.15670
   H      -14.70982        12.83409         3.06271
   H       -5.18332        14.20282        -2.63233
   H       -2.13620        18.00328        -2.94997
   H       -2.43292        18.54108        -1.28920
   H       -3.36982        19.23253        -2.61154
   H       -7.76618        18.03804        -1.86793
   H      -11.35563        19.33296        -0.95804
   H       -6.64662        22.16811        -4.00061
   H      -11.09320        24.27858        -3.21878
   H      -10.33794        26.28829        -4.32099
   H       -8.58247        27.55755        -5.49214
   H       -6.37471        26.54314        -5.89560
   H       -5.90422        24.24919        -5.13014
*
