# ORCA input file
# SCF done       -200.105995769479          0.000924120953
! CAM-B3LYP def2-SVP def2/J RIJCOSX Grid4 TightSCF
%maxcore 5000
%tddft
    Mode sTDDFT
    Ethresh 5.0
    maxcore 5000
end

%pal
  nprocs 6
  end
* xyz 0 1
   C        3.61501         3.56943         0.81774
   C        2.36799         3.03600         0.61417
   C        2.05873         2.13260        -0.42051
   N        1.75433         1.40295        -1.25316
   C        1.29470         3.26790         1.49677
   N        0.41750         3.41022         2.22414
   C        4.84112         3.15415         0.14687
   C        5.95142         3.55489         0.94706
   C        7.23609         3.27444         0.58207
   C        7.47226         2.57826        -0.62528
   C        6.36731         2.19040        -1.43687
   C        5.04579         2.48762        -1.02938
   C        6.61941         1.50590        -2.64277
   C        7.89945         1.21438        -3.02928
   C        8.98633         1.59495        -2.22859
   C        8.77691         2.26212        -1.05209
   C        5.46018         4.29993         2.11813
   O        6.09830         4.76470         3.03836
   C        3.99643         4.44713         1.89597
   C        3.36233         5.46324         2.55105
   C        2.22554         6.21166         2.20898
   S        1.46562         6.03219         0.65719
   C        0.69503         7.55733         0.76120
   C        0.86157         8.12304         2.02891
   C        1.76549         7.38123         2.85119
   C        2.16627         7.94374         4.08430
   C        3.18812         7.36041         4.99453
   O        4.20564         7.94429         5.28831
   O        2.85211         6.17946         5.50151
   C        1.63464         9.15519         4.47273
   C        0.66509         9.81756         3.71936
   C        0.25972         9.32273         2.50087
   O       -0.66806         9.92319         1.73878
   C        0.27560         8.25446        -0.42674
   C        0.82541         9.44863        -0.83704
   C        0.22612         9.93427        -2.03975
   C        0.50136        11.10890        -2.73405
   C       -0.19828        11.37548        -3.90168
   C       -1.16460        10.47914        -4.39156
   C       -1.43723         9.31117        -3.71643
   C       -0.74281         9.04249        -2.54369
   S       -0.92452         7.64339        -1.52862
   C        0.06187        12.56775        -4.61743
   N        0.26743        13.53257        -5.20080
   C        1.82344        10.13127        -0.03770
   S        1.40224        11.63947         0.64805
   C        2.63738        11.53931         1.85575
   C        3.38750        10.35104         1.68830
   C        2.96811         9.58295         0.56367
   C        3.68772         8.40835         0.21294
   C        3.53565         7.65284        -1.03956
   O        3.93204         6.51983        -1.19362
   O        2.96426         8.33996        -2.04121
   C        4.67472         7.96813         1.07541
   C        4.95914         8.62221         2.26758
   C        4.33408         9.81181         2.59580
   O        4.56615        10.43715         3.75872
   C        2.86270        12.54311         2.80171
   C        2.00134        13.55437         3.16893
   C        2.35346        14.67564         4.01304
   C        3.62379        15.10760         4.29685
   C        3.90995        16.21685         5.11800
   N        4.20127        17.10899         5.77964
   C        4.80438        14.53496         3.77878
   N        5.80736        14.14444         3.37818
   C        1.11639        15.32564         4.43084
   C        0.02568        14.62992         3.83352
   C        0.54308        13.52936         3.01205
   O       -0.13932        12.70542         2.41037
   C       -1.27056        15.01123         4.03156
   C       -1.53964        16.13363         4.84643
   C       -0.45496        16.83386         5.44860
   C        0.87758        16.41061         5.22885
   C       -0.73563        17.95185         6.25846
   C       -2.02546        18.36249         6.46321
   C       -3.09246        17.67291         5.86944
   C       -2.85472        16.58180         5.07787
   H        8.06453         3.58056         1.20377
   H        4.22590         2.19365        -1.66599
   H        5.77923         1.21242        -3.25491
   H        8.08156         0.68832        -3.95453
   H        9.99001         1.35769        -2.54847
   H        9.61027         2.55832        -0.43166
   H        3.95003         5.87444         3.36378
   H        3.54244         5.84316         6.09730
   H        1.96150         9.59403         5.40315
   H        0.23674        10.73725         4.08768
   H       -0.84866        10.82098         2.07177
   H        1.24470        11.79995        -2.36678
   H       -1.68892        10.71809        -5.30413
   H       -2.17453         8.61568        -4.08484
   H        2.95602         7.79352        -2.84320
   H        5.22915         7.08220         0.80542
   H        5.68192         8.19878         2.94894
   H        5.00087         9.82490         4.37674
   H        3.81351        12.48254         3.31397
   H       -2.08183        14.47122         3.56568
   H        1.67674        16.95833         5.70243
   H        0.08931        18.48080         6.71253
   H       -2.22963        19.22205         7.08376
   H       -4.10366        18.01002         6.04155
   H       -3.67268        16.04707         4.61732
*
