# ORCA input file
# SCF done       -173.554737457790          0.000992189277
! CAM-B3LYP def2-SVP def2/J RIJCOSX Grid4 TightSCF
%maxcore 5000
%tddft
    Mode sTDDFT
    Ethresh 5.0
    maxcore 5000
end

%pal
  nprocs 6
  end
* xyz 0 1
   C       15.04199        -8.96861        -6.44072
   C       15.11702       -10.33239        -6.49900
   F       16.23401       -10.91467        -6.97614
   C       14.06959       -11.16121        -6.07684
   C       12.92882       -10.58716        -5.58761
   C       12.79779        -9.18627        -5.50426
   C       13.87401        -8.36089        -5.94138
   C       13.76250        -6.95172        -5.87698
   C       12.61556        -6.39288        -5.38496
   C       11.54910        -7.22250        -4.93293
   C       11.62529        -8.58316        -4.99348
   C       10.45846        -6.37029        -4.41507
   O        9.37812        -6.72048        -3.99214
   C       10.99103        -4.98688        -4.46256
   C       12.20811        -4.99821        -5.23157
   C       12.73553        -3.94173        -5.93660
   C       12.11459        -2.68024        -6.00783
   N       11.60173        -1.65881        -6.12360
   C       13.88919        -4.02943        -6.73632
   N       14.84074        -4.04086        -7.37990
   C       10.35592        -3.99763        -3.75592
   C       10.86913        -2.79273        -3.26038
   S       12.56953        -2.47415        -3.10462
   C       12.32741        -0.92306        -2.38004
   C       10.95444        -0.66885        -2.20655
   C       10.13266        -1.72497        -2.70567
   C        8.73368        -1.62495        -2.63523
   C        8.17879        -0.52295        -2.04637
   F        6.84562        -0.40912        -1.96041
   C        8.98878         0.49520        -1.50052
   F        8.40224         1.53817        -0.89083
   C       10.35198         0.43303        -1.57061
   C       13.48448        -0.14964        -2.10309
   C       13.54814         1.19612        -1.97182
   C       14.75060         1.95073        -1.75378
   C       15.85817         1.58051        -1.08896
   C       16.00898         0.32161        -0.29894
   C       17.05127         2.50888        -1.03771
   N       17.22811         3.08653         0.27259
   C       18.03896         2.57923         1.21713
   C       18.04765         2.98988         2.51751
   C       18.93434         2.49117         3.48193
   C       18.97780         2.93192         4.78294
   C       19.81937         2.48128         5.82510
   C       19.63778         3.13019         7.01141
   C       18.64531         4.13226         6.96457
   S       17.93497         4.22000         5.37487
   C       18.22764         4.98905         7.97038
   C       18.66436         5.07215         9.30681
   C       18.04169         6.04945        10.02576
   C       17.08318         6.79416         9.29198
   S       16.99837         6.19226         7.65045
   C       16.33756         7.83293         9.79528
   C       15.39204         8.62810         9.12278
   S       14.56115         9.90347        10.00905
   C       13.64140        10.43509         8.65639
   C       13.94314         9.67466         7.55250
   C       14.92195         8.66461         7.81918
   O       15.18132         7.95396         6.70036
   C       14.39269         8.48915         5.73355
   N       14.46411         7.92826         4.44204
   O       13.75638         8.43584         3.58825
   O       15.20968         6.98670         4.25919
   C       13.61941         9.53110         6.17630
   H       15.86691        -8.36099        -6.77869
   H       14.18513       -12.23119        -6.14685
   H       12.10791       -11.20523        -5.25617
   H       14.59289        -6.34898        -6.20957
   H       10.80235        -9.19512        -4.65575
   H        9.34086        -4.23936        -3.45700
   H        8.09501        -2.39713        -3.03097
   H       10.93813         1.21239        -1.11512
   H       14.40746        -0.71281        -2.11449
   H       12.66094         1.78664        -2.14847
   H       14.73281         2.94414        -2.18718
   H       15.04122        -0.08568        -0.01862
   H       16.58187         0.51729         0.60764
   H       16.54955        -0.43132        -0.87380
   H       16.93158         3.31865        -1.76281
   H       17.95844         1.95027        -1.28668
   H       16.51486         3.73349         0.57894
   H       18.75004         1.83835         0.87406
   H       17.34304         3.74833         2.83208
   H       19.62955         1.71334         3.19292
   H       20.53420         1.69236         5.66796
   H       20.19105         2.92005         7.90915
   H       19.41889         4.41662         9.70386
   H       18.24168         6.26524        11.06046
   H       16.49414         8.08090        10.83659
   H       12.95650        11.25008         8.75671
   H       12.92823        10.09818         5.58834
*
