# ORCA input file
# SCF done       -197.220342034825          0.000696203623
! CAM-B3LYP def2-SVP def2/J RIJCOSX Grid4 TightSCF
%maxcore 5000
%tddft
    Mode sTDDFT
    Ethresh 5.0
    maxcore 5000
end

%pal
  nprocs 6
  end
* xyz 0 1
   C       -7.20371         4.83113         3.44774
   C       -6.38253         3.93736         2.79939
   C       -4.97838         4.04484         2.75372
   N       -3.83236         4.07282         2.68137
   C       -6.80623         2.79018         2.09934
   N       -7.06622         1.83575         1.51420
   C       -6.74784         6.00862         4.18449
   C       -7.87764         6.67724         4.71544
   C       -7.77723         7.81850         5.47180
   C       -6.49722         8.32673         5.71940
   C       -5.37447         7.65398         5.18378
   C       -5.47729         6.49919         4.41649
   S       -3.88923         8.44833         5.61177
   C       -4.78547         9.65435         6.49645
   C       -6.12739         9.47582         6.47085
  Br       -3.86484        11.03716         7.36789
   C       -9.10186         5.94476         4.33195
   O      -10.24244         6.25044         4.62150
   C       -8.64060         4.78264         3.54519
   C       -9.47069         3.80519         3.03387
   C      -10.85149         3.76887         3.19913
   C      -11.63666         2.72056         2.75679
   C      -13.02220         2.55943         2.97510
   C      -13.52458         1.37541         2.51598
   C      -12.55920         0.55751         1.89569
   S      -10.99742         1.33971         1.89330
   C      -12.73537        -0.72610         1.39666
   C      -13.87274        -1.54770         1.50493
   C      -13.69018        -2.81192         1.02221
   C      -12.41362        -3.04682         0.46506
   S      -11.43648        -1.58873         0.60823
   C      -11.97874        -4.27438         0.00507
   C      -10.82325        -4.64887        -0.68929
   S      -10.33318        -6.32457        -0.58080
   C       -9.01714        -6.10335        -1.69382
   C       -8.99565        -4.76936        -2.14154
   C       -9.97762        -3.95062        -1.58065
   O      -10.12561        -2.68259        -1.96651
   C       -7.97551        -4.31117        -3.13337
   F       -6.71646        -4.53675        -2.69836
   F       -8.07251        -4.99013        -4.30018
   F       -8.04267        -3.02213        -3.44305
   C       -8.14598        -7.12729        -2.06102
   C       -8.04311        -8.37090        -1.46901
   C       -7.16235        -9.40313        -1.86404
   C       -7.18364       -10.49945        -1.04974
   C       -8.07226       -10.37645         0.03650
   S       -8.92506        -8.85380        -0.04000
   C       -8.26109       -11.24493         1.10320
   C       -7.66735       -12.50353         1.32443
   C       -8.00561       -13.06450         2.52337
   C       -8.87229       -12.27048         3.30621
   S       -9.28610       -10.80656         2.44659
   C       -9.32774       -12.54894         4.58208
   C      -10.11560       -11.66473         5.31099
   C      -10.60132       -11.78851         6.59427
   C      -10.67978       -12.89480         7.50852
   C      -10.75953       -14.23179         7.19392
   C      -10.87492       -15.25836         8.15132
   N      -10.94962       -16.13718         8.88716
   C      -10.84979       -14.73856         5.88287
   N      -10.97237       -15.20893         4.84198
   C      -10.87689       -12.33933         8.84848
   C      -11.11861       -10.94769         8.73154
   C      -11.02143       -10.56025         7.30955
   O      -11.20374        -9.46353         6.82651
   C      -11.37138       -10.14714         9.81772
   C      -11.37573       -10.74573        11.08266
   C      -11.12102       -12.13274        11.19040
   C      -10.87269       -12.94503        10.08919
   S      -11.16213       -12.66331        12.84434
   C      -11.52030       -11.03672        13.36124
   C      -11.60311       -10.14099        12.34943
  Br      -11.74861       -10.67476        15.18751
   H       -8.65782         8.30281         5.86387
   H       -4.58987         6.02480         4.03273
   H       -6.82895        10.12538         6.96170
   H       -9.02348         2.98596         2.48448
   H      -11.33702         4.57361         3.73233
   H      -13.60012         3.31293         3.47952
   H      -14.55395         1.07903         2.60656
   H      -14.78263        -1.20221         1.96030
   H      -14.44076        -3.58172         1.04210
   H      -12.62000        -5.10545         0.27599
   H      -10.78953        -2.21416        -1.44258
   H       -7.45538        -6.92581        -2.86789
   H       -6.53393        -9.30103        -2.73067
   H       -6.56868       -11.36959        -1.19099
   H       -7.00945       -12.95940         0.60681
   H       -7.65405       -14.01939         2.87096
   H       -8.99763       -13.47768         5.02250
   H      -10.30299       -10.69285         4.86157
   H      -11.55823        -9.09158         9.69747
   H      -10.67837       -13.99614        10.22332
   H      -11.81481        -9.09647        12.48805
*
