# ORCA input file
# SCF done       -176.979885608740          0.000990497655
! CAM-B3LYP def2-SVP def2/J RIJCOSX Grid4 TightSCF
%maxcore 5000
%tddft
    Mode sTDDFT
    Ethresh 5.0
    maxcore 5000
end

%pal
  nprocs 6
  end
* xyz 0 1
   C      -13.67971         1.53680        -3.87617
   C      -14.66974         1.49550        -4.82002
   C      -15.39994         0.33258        -5.14667
   N      -16.03202        -0.57924        -5.44050
   C      -15.08847         2.58826        -5.61029
   N      -15.48681         3.42260        -6.29060
   C      -13.19085         0.40272        -3.10318
   C      -12.08750         0.82564        -2.32111
   C      -11.39645        -0.02453        -1.49075
   C      -11.81335        -1.35717        -1.42870
   C      -12.92139        -1.77031        -2.20805
   C      -13.61951        -0.91082        -3.04709
   S      -13.27198        -3.45526        -1.97649
   C      -11.94210        -3.58262        -0.85556
   C      -11.26949        -2.42327        -0.66146
  Br      -11.56895        -5.23142        -0.04553
   C      -11.82697         2.25173        -2.56429
   O      -10.97492         2.92657        -2.02003
   C      -12.86946         2.69227        -3.52679
   C      -13.11439         3.98182        -3.87950
   C      -12.25051         5.08218        -3.62217
   C      -10.86483         5.11286        -3.56910
   C      -10.04268         3.99401        -4.11827
   O      -10.43195         3.30445        -5.02217
   O       -8.81790         3.83958        -3.61192
   C      -10.36941         6.38510        -3.18532
   C      -11.38193         7.29443        -3.00988
   S      -12.93416         6.64146        -3.27721
   C       -8.97204         6.78015        -2.95117
   C       -8.24972         6.43769        -1.88345
   C       -8.72735         5.51888        -0.79951
   C       -6.92738         7.13295        -1.62255
   N       -7.20634         8.52122        -1.28572
   C       -7.39348         9.43015        -2.28161
   C       -8.44118        10.28968        -2.32844
   C       -8.64883        11.26469        -3.32574
   C       -9.88700        11.77736        -3.60688
   C      -10.24360        12.76862        -4.55195
   C      -11.58501        12.97893        -4.66585
   C      -12.36997        12.14269        -3.84018
   S      -11.34774        11.13463        -2.85318
   C      -13.74805        12.02627        -3.79522
   C      -14.71352        12.79083        -4.47863
   C      -15.99761        12.39503        -4.23605
   C      -16.10693        11.28582        -3.37002
   S      -14.52513        10.78344        -2.83356
   C      -17.27383        10.66057        -2.96974
   C      -17.30269         9.50422        -2.20312
   C      -18.41269         8.84506        -1.71139
   C      -19.77266         9.27123        -1.55048
   C      -20.22555        10.56417        -1.40369
   C      -21.57788        10.90910        -1.22470
   N      -22.66672        11.25358        -1.09599
   C      -19.38653        11.68971        -1.29712
   N      -18.75332        12.63771        -1.15273
   C      -20.58568         8.07283        -1.33984
   C      -19.71955         6.96103        -1.19246
   C      -18.32074         7.41422        -1.36484
   O      -17.31271         6.74136        -1.27997
   C      -20.18417         5.69362        -0.94476
   C      -21.56891         5.51231        -0.84500
   C      -22.42353         6.62668        -1.00358
   C      -21.95341         7.91232        -1.24879
   S      -24.09550         6.17872        -0.84697
   C      -23.62846         4.52176        -0.57129
   C      -22.29146         4.31250        -0.59603
  Br      -24.95139         3.22509        -0.27258
   H      -10.55674         0.32738        -0.91229
   H      -14.45774        -1.27362        -3.61791
   H      -10.42452        -2.32268        -0.00509
   H      -14.05666         4.23106        -4.35065
   H       -8.67276         4.40134        -2.83770
   H      -11.27931         8.32259        -2.72008
   H       -8.57014         7.49208        -3.66175
   H       -9.69651         5.07931        -1.02445
   H       -8.81660         6.06939         0.13787
   H       -8.00450         4.71961        -0.63204
   H       -6.28249         7.11440        -2.50307
   H       -6.40287         6.66670        -0.78595
   H       -7.88868         8.60045        -0.53894
   H       -6.64206         9.41850        -3.06026
   H       -9.22559        10.18048        -1.58859
   H       -7.81212        11.58595        -3.93043
   H       -9.49522        13.29553        -5.11727
   H      -12.03148        13.69061        -5.33647
   H      -14.44380        13.61052        -5.12009
   H      -16.86935        12.86285        -4.65714
   H      -18.19747        11.09380        -3.32541
   H      -16.35958         8.98930        -2.04250
   H      -19.50328         4.86476        -0.83030
   H      -22.64454         8.73040        -1.36620
   H      -21.83122         3.35298        -0.44573
*
