# ORCA input file
# SCF done       -188.199516139396          0.000774681816
! CAM-B3LYP def2-SVP def2/J RIJCOSX Grid4 TightSCF
%maxcore 5000
%tddft
    Mode sTDDFT
    Ethresh 5.0
    maxcore 5000
end

%pal
  nprocs 6
  end
* xyz 0 1
   C       -7.43717        -1.84637         1.37655
   C       -6.46659        -1.77781         2.34136
   C       -6.18199        -2.81704         3.25063
   N       -5.90707        -3.63389         4.00925
   C       -5.65961        -0.64513         2.57781
   N       -4.98865         0.24963         2.83794
   C       -8.37290        -2.94304         1.17463
   C       -9.33392        -2.55222         0.20940
   C      -10.35605        -3.37722        -0.19218
   C      -10.43416        -4.64878         0.38531
   C       -9.46673        -5.03223         1.34510
   C       -8.43342        -4.19845         1.75223
   S       -9.74435        -6.64792         1.92186
   C      -11.13739        -6.78352         0.88181
   C      -11.38407        -5.67770         0.14018
  Br      -12.13354        -8.37260         0.87278
   C       -9.02906        -1.18898        -0.27327
   O       -9.62518        -0.57551        -1.13023
   C       -7.78652        -0.79112         0.44247
   C       -7.02727         0.28414         0.10781
   C       -7.43090         1.32874        -0.79451
   C       -6.57934         1.66973        -1.81366
   S       -7.25588         2.72287        -2.97410
   C       -8.72275         2.81269        -2.04213
   C       -8.68117         2.04892        -0.86985
   C       -9.75849         2.14549         0.04384
   C       -9.57744         1.60581         1.44045
   C       -8.41904         2.30456         2.15571
   C      -10.91596         2.82946        -0.32000
   C      -12.13793         2.76632         0.56005
   C      -12.24695         3.97781         1.48664
   C      -10.96544         3.58354        -1.52095
   C      -11.96586         4.49022        -2.05978
   C      -11.54450         5.06224        -3.23003
   S       -9.98521         4.58917        -3.75292
   C       -9.83296         3.57618        -2.35367
   C      -13.24627         4.86268        -1.50847
   C      -13.86366         6.03693        -1.76482
   C      -15.12131         6.40720        -1.22192
   S      -15.84736         7.92405        -1.68690
   C      -17.24809         7.70313        -0.66967
   C      -17.13774         6.48291         0.00520
   C      -15.95160         5.76992        -0.31741
   S      -15.91500         4.28045         0.57078
   C      -17.45887         4.74545         1.27494
   N      -17.94774         5.86301         0.90239
   C      -18.25571         8.67517        -0.64546
   C      -19.37371         8.60216         0.15069
   C      -20.42892         9.51974         0.20036
   C      -20.64567        10.64555        -0.57319
   C      -21.75148        11.52097        -0.45807
   C      -21.76132        12.55162        -1.35624
   C      -20.65900        12.54158        -2.23068
   S      -19.61110        11.19124        -1.87367
   C      -20.31165        13.39435        -3.26752
   C      -20.94694        14.54403        -3.77344
   C      -20.28520        15.11615        -4.82210
   C      -19.09179        14.44710        -5.19719
   S      -18.84804        13.06012        -4.16001
   C      -18.24667        14.81192        -6.21805
   C      -17.05610        14.17300        -6.61427
   S      -16.14967        14.80824        -7.98473
   C      -14.91195        13.61580        -7.89822
   C      -15.16270        12.74838        -6.86226
   C      -16.36228        13.06634        -6.14829
   O      -16.55420        12.18682        -5.14305
   C      -15.51285        11.31932        -5.20179
   N      -15.48567        10.28776        -4.24252
   O      -14.55415         9.50229        -4.30091
   O      -16.38489        10.24350        -3.42560
   C      -14.63265        11.59784        -6.21645
   H      -11.07237        -3.05118        -0.92993
   H       -7.71563        -4.53682         2.48081
   H      -12.20050        -5.58973        -0.55311
   H       -5.99667         0.32131         0.44023
   H       -5.59857         1.26593        -1.98038
   H       -9.40080         0.52929         1.42393
   H      -10.47018         1.77177         2.03656
   H       -7.46086         2.07728         1.69607
   H       -8.37745         1.98305         3.19424
   H       -8.56059         3.38286         2.13246
   H      -12.12790         1.85172         1.15233
   H      -13.02062         2.69145        -0.07180
   H      -11.40281         4.00988         2.17153
   H      -13.16463         3.92610         2.06818
   H      -12.25347         4.90099         0.91228
   H      -12.09947         5.74318        -3.84458
   H      -13.75252         4.16996        -0.85912
   H      -13.40714         6.78348        -2.39845
   H      -17.93436         4.09293         1.98029
   H      -18.08782         9.51351        -1.30447
   H      -19.44531         7.74939         0.81280
   H      -21.19968         9.32066         0.93537
   H      -22.51263        11.36418         0.28657
   H      -22.52757        13.30454        -1.40947
   H      -21.86591        14.91944        -3.35895
   H      -20.61588        15.99947        -5.33982
   H      -18.52000        15.68687        -6.79228
   H      -14.10172        13.62992        -8.59592
   H      -13.74321        11.05054        -6.44985
*
