# ORCA input file
# SCF done       -156.099213312734          0.001349388754
! CAM-B3LYP def2-SVP def2/J RIJCOSX Grid4 TightSCF
%maxcore 5000
%tddft
    Mode sTDDFT
    Ethresh 5.0
    maxcore 5000
end

%pal
  nprocs 6
  end
* xyz 0 1
   C       -5.15385        -3.31764       -10.05444
   C       -5.47943        -4.62141        -9.74265
   C       -5.02036        -5.74218       -10.45892
   N       -4.68132        -6.69571       -11.00506
   C       -6.29744        -5.03199        -8.67351
   N       -6.94625        -5.46332        -7.82756
   C       -4.27747        -2.91716       -11.15670
   C       -4.14737        -1.50822       -11.13797
   C       -3.39147        -0.81996       -12.05286
   C       -2.73049        -1.55879       -13.04131
   C       -2.86576        -2.96458       -13.05248
   C       -3.63029        -3.66164       -12.12267
   S       -1.97170        -3.68179       -14.36023
   C       -1.43756        -2.10119       -14.86567
   C       -1.90144        -1.08857       -14.09746
  Br       -0.31730        -1.93679       -16.36306
   C       -4.94763        -0.96293       -10.01841
   O       -5.04658         0.21390        -9.72080
   C       -5.57978        -2.12662        -9.37757
   C       -6.47534        -2.04876        -8.31857
   C       -6.86184        -0.87514        -7.69753
   C       -7.81108        -0.81943        -6.68289
   C       -8.27245         0.33537        -6.03060
   C       -9.25574         0.09793        -5.10208
   C       -9.60042        -1.25443        -4.98591
   S       -8.63973        -2.23055        -6.06741
   C      -10.58706        -1.81926        -4.17121
   C      -11.51258        -1.15720        -3.35699
   C      -12.38487        -2.00489        -2.71532
   C      -12.17000        -3.35806        -2.99180
   S      -10.83181        -3.54168        -4.10138
   C      -12.89427        -4.44124        -2.48981
   C      -12.68807        -5.74988        -2.84632
   C      -13.42534        -6.82998        -2.35681
   C      -13.29117        -8.17498        -2.72098
   C      -14.16067        -9.02121        -2.07467
   C      -15.00815        -8.36947        -1.17112
   S      -14.68906        -6.64982        -1.16436
   C      -15.96944        -8.92127        -0.32688
   C      -16.29286       -10.27457        -0.13060
   C      -17.23904       -10.47544         0.83525
   C      -17.70596        -9.29381         1.45872
   S      -16.91638        -7.90561         0.72682
   C      -18.68924        -9.26883         2.42502
   C      -19.24947        -8.20838         3.15709
   S      -20.85270        -8.47615         3.81605
   C      -20.91739        -6.86543         4.39781
   C      -19.79155        -6.14433         4.13536
   C      -19.61541        -4.73910         4.60699
   C      -18.80704        -6.90719         3.44212
   C      -17.46065        -6.49511         3.17108
   C      -17.04138        -5.26114         2.80769
   C      -15.69336        -4.99256         2.44928
   C      -15.25721        -3.80008         1.97176
   C      -13.92537        -3.56726         1.54159
   C      -13.46629        -2.36883         1.10338
   C      -12.13242        -2.14659         0.66239
   C      -11.65700        -0.94506         0.26758
   C      -10.31722        -0.73157        -0.19627
   C       -9.84461         0.45610        -0.57724
   H       -3.31344         0.25520       -12.01148
   H       -3.70145        -4.73466       -12.17773
   H       -1.67164        -0.05245       -14.26651
   H       -6.92106        -2.96767        -7.95764
   H       -6.42487         0.05854        -8.02114
   H       -7.87856         1.30834        -6.26409
   H       -9.72496         0.86297        -4.51002
   H      -11.53329        -0.08731        -3.26228
   H      -13.17342        -1.68068        -2.06087
   H      -13.67788        -4.21015        -1.77800
   H      -11.91280        -5.97862        -3.56661
   H      -12.56471        -8.49402        -3.44710
   H      -14.19945       -10.08348        -2.23474
   H      -15.82073       -11.06367        -0.68756
   H      -17.60462       -11.44345         1.12973
   H      -19.16328       -10.22896         2.59951
   H      -21.79283        -6.53456         4.92259
   H      -20.31625        -4.52426         5.41052
   H      -19.80439        -4.03545         3.79678
   H      -18.60032        -4.58430         4.96742
   H      -16.72272        -7.28504         3.23518
   H      -17.75018        -4.45512         2.68887
   H      -14.99108        -5.81238         2.53031
   H      -15.95260        -2.97280         1.89976
   H      -13.24635        -4.41047         1.56915
   H      -14.13912        -1.51958         1.08779
   H      -11.47358        -3.00607         0.64391
   H      -12.30754        -0.07934         0.29216
   H       -9.67674        -1.60349        -0.23236
   H      -10.45870         1.34161        -0.54748
   H       -8.83378         0.58354        -0.92384
*
