# ORCA input file
# SCF done       -152.867437706834          0.000326835717
! CAM-B3LYP def2-SVP def2/J RIJCOSX Grid4 TightSCF
%maxcore 5000
%tddft
    Mode sTDDFT
    Ethresh 5.0
    maxcore 5000
end

%pal
  nprocs 6
  end
* xyz 0 1
   C        9.37342        -3.12967         8.21495
   C        9.24316        -2.70099         6.95187
   C        9.96283        -1.64210         6.30437
   C        9.61691        -1.43871         5.01368
   C        8.60304        -2.31183         4.53193
   S        8.09871        -3.41162         5.80223
   C        8.05948        -2.34957         3.27047
   C        8.37825        -1.53576         2.15576
   C        7.66952        -1.83513         1.03576
   C        6.74730        -2.90230         1.18905
   S        6.81183        -3.50601         2.83593
   C        5.93522        -3.40417         0.20338
   C        5.02083        -4.45864         0.29944
   C        4.22830        -4.98992        -0.74020
   C        4.19193        -4.58631        -2.08279
   C        3.37033        -5.24655        -2.95942
   C        2.56451        -6.31354        -2.54163
   C        2.55148        -6.75220        -1.23425
   C        3.40265        -6.07742        -0.30432
   C        3.58421        -6.35256         1.03560
   S        4.72375        -5.32235         1.77834
   C        1.71076        -7.83831        -0.78011
   C        1.24831        -8.82918        -1.55767
   C        0.42117        -9.94060        -1.12838
   C        0.25927       -11.03290        -1.99050
   O        0.86331       -11.00974        -3.23754
   C       -0.01717       -10.68556        -4.29372
   C       -0.48428       -12.16082        -1.59513
   C       -1.09742       -12.14596        -0.34589
   C       -0.97806       -11.05086         0.50446
   C       -0.21120        -9.96323         0.11928
   O       -1.64116       -11.15556         1.69202
   C       -1.54854       -10.09440         2.61010
   C       -0.54320       -13.30741        -2.47483
   C       -1.39925       -14.34297        -2.37290
   C       -1.40442       -15.47212        -3.23434
   C       -2.22560       -16.60225        -3.15645
   C       -3.23654       -16.86045        -2.21259
   C       -3.93452       -18.03602        -2.28634
   C       -3.66296       -18.98796        -3.27536
   C       -2.68277       -18.80185        -4.23602
   C       -1.94260       -17.57059        -4.18165
   C       -0.92650       -17.14869        -5.00618
   S       -0.30792       -15.61841        -4.56777
   C       -2.38892       -19.76807        -5.24930
   C       -2.92367       -21.01466        -5.35713
   C       -2.57883       -21.92162        -6.37515
   C       -3.08501       -23.18993        -6.48167
   C       -2.77205       -24.15581        -7.47276
   C       -3.41885       -25.34148        -7.32800
   C       -4.28951       -25.39168        -6.21018
   S       -4.25290       -23.86397        -5.35059
   C       -5.07257       -26.44238        -5.79792
   C       -5.18616       -27.72568        -6.40155
   C       -6.03667       -28.56613        -5.77213
   C       -6.67019       -28.01014        -4.61088
   S       -6.10463       -26.34758        -4.38236
   C       -7.55228       -28.60246        -3.79443
   H       10.08344        -2.67056         8.87992
   H        8.78125        -3.93868         8.60132
   H       10.70981        -1.08118         6.83775
   H       10.05540        -0.68839         4.37961
   H        9.12008        -0.75952         2.21322
   H        7.77826        -1.32628         0.09358
   H        6.01843        -2.93220        -0.76708
   H        4.80575        -3.76547        -2.42066
   H        3.33417        -4.94015        -3.99449
   H        1.91851        -6.78656        -3.26543
   H        3.12160        -7.11456         1.62984
   H        1.48582        -7.83465         0.27674
   H        1.55325        -8.87156        -2.59364
   H       -0.40762        -9.66661        -4.18435
   H       -0.86171       -11.38104        -4.34483
   H        0.56765       -10.75506        -5.20964
   H       -1.66244       -12.99389         0.00397
   H       -0.10038        -9.11292         0.77071
   H       -2.15094       -10.39309         3.46665
   H       -1.94987        -9.16435         2.19402
   H       -0.51546        -9.93247         2.93509
   H        0.18969       -13.31611        -3.27212
   H       -2.15099       -14.34982        -1.59656
   H       -3.45563       -16.13803        -1.44188
   H       -4.71413       -18.24235        -1.56775
   H       -4.25006       -19.89264        -3.28300
   H       -0.49364       -17.64476        -5.85140
   H       -1.65893       -19.47778        -5.99260
   H       -3.64497       -21.36730        -4.63277
   H       -1.86257       -21.60776        -7.12384
   H       -2.07313       -23.93606        -8.26103
   H       -3.29748       -26.18148        -7.98833
   H       -4.62793       -27.97882        -7.28563
   H       -6.24894       -29.57405        -6.08225
   H       -7.86836       -29.61547        -3.97035
   H       -7.96879       -28.09204        -2.94567
*
