# ORCA input file
# SCF done       -182.037492919981          0.000909492546
! CAM-B3LYP def2-SVP def2/J RIJCOSX Grid4 TightSCF
%maxcore 5000
%tddft
    Mode sTDDFT
    Ethresh 5.0
    maxcore 5000
end

%pal
  nprocs 6
  end
* xyz 0 1
   C       -4.99947         0.08544         6.60198
   S       -3.94298         0.02677         5.28055
   C       -3.35545        -1.54294         5.72183
   C       -4.00225        -2.01187         6.87507
   C       -4.94614        -1.05291         7.38056
   C       -5.69103        -1.31434         8.56928
   C       -6.65636        -0.30412         9.06958
   O       -7.19140         0.51800         8.37521
   O       -6.91888        -0.34069        10.39174
   C       -5.51108        -2.52747         9.18898
   C       -4.62921        -3.48616         8.67652
   C       -3.87989        -3.25846         7.54414
   O       -3.05392        -4.20389         7.05393
   C       -2.33003        -2.08713         4.90253
   O       -1.67728        -3.24093         5.18774
   C       -1.79955        -1.56881         3.73473
   C       -1.88240        -0.46490         2.78434
   O       -2.59006         0.51202         2.76452
   N       -0.91260        -0.77538         1.83327
   C       -0.20471        -1.95532         2.06516
   O        0.66971        -2.38768         1.35914
   C       -0.78818        -2.46588         3.30597
   C       -0.74187        -3.48722         4.22984
   C        0.09873        -4.63548         4.28808
   C        0.04375        -5.55578         5.26969
   C        0.88228        -6.73637         5.27893
   C        1.14850        -7.38372         4.10594
   S        2.10276        -8.79846         4.26455
   C        2.20261        -8.53401         5.97746
   C        1.50385        -7.39475         6.40640
   C        1.56232        -7.02943         7.77455
   C        0.94542        -5.71846         8.18942
   C       -0.49355        -5.85672         8.69121
   C        2.22826        -7.83963         8.68565
   C        2.18675        -7.57786        10.16571
   C        1.15913        -8.49223        10.84154
   C        2.95257        -8.97213         8.23826
   C        3.86501        -9.84054         8.94721
   C        4.46937       -10.73028         8.10729
   S        3.96952       -10.62864         6.46754
   C        2.93966        -9.29132         6.87224
   C        4.21412        -9.84061        10.35410
   C        5.50034        -9.88093        10.77056
   C        5.95631        -9.93271        12.11305
   C        5.25463       -10.20138        13.25529
   C        5.81907       -10.23802        14.56132
   C        4.95835       -10.60926        15.54309
   C        3.65144       -10.90014        15.08146
   S        3.55221       -10.63872        13.35334
   C        2.58077       -11.35820        15.81651
   C        2.52975       -11.61051        17.20822
   C        1.34232       -12.11366        17.63425
   C        0.38002       -12.29575        16.60474
   S        1.04385       -11.76489        15.06972
   C       -0.86819       -12.83010        16.76650
   C       -1.83327       -13.06637        15.77081
   S       -1.65630       -12.67471        14.06854
   C       -3.20106       -13.29348        13.63581
   C       -3.85002       -13.79210        14.74059
   C       -3.07481       -13.65688        15.93188
   O       -3.73425       -14.15805        16.99803
   C       -4.91733       -14.61109        16.50206
   N       -5.82799       -15.20111        17.40930
   O       -6.87849       -15.59801        16.93947
   O       -5.50811       -15.26904        18.57640
   C       -5.05540       -14.42371        15.15270
   H       -5.63476         0.93349         6.76081
   H       -6.38795        -0.99927        10.85769
   H       -6.08482        -2.79934        10.06506
   H       -4.54388        -4.44001         9.17994
   H       -3.10694        -5.00185         7.59696
   H       -0.73216        -0.18647         1.03305
   H        0.82012        -4.70342         3.48719
   H       -0.68865        -5.42688         6.05150
   H        0.78011        -7.11607         3.13490
   H        0.96676        -5.04612         7.33102
   H        1.55098        -5.24975         8.96643
   H       -1.07884        -6.46785         8.00626
   H       -0.94949        -4.87219         8.77498
   H       -0.51829        -6.33006         9.66892
   H        1.92678        -6.54392        10.38255
   H        3.17620        -7.76167        10.58838
   H        0.15225        -8.24054        10.51763
   H        1.21089        -8.38784        11.92295
   H        1.33226        -9.53416        10.58514
   H        5.17277       -11.48997         8.38803
   H        3.41352        -9.83426        11.07517
   H        6.27932        -9.81662        10.02091
   H        7.01563        -9.75841        12.25668
   H        6.85459        -9.99428        14.72239
   H        5.22601       -10.70078        16.58022
   H        3.37021       -11.41793        17.85041
   H        1.11934       -12.37391        18.65367
   H       -1.15915       -13.12972        17.76478
   H       -3.52595       -13.25713        12.61730
   H       -5.90257       -14.70499        14.56257
*
