# ORCA input file
# SCF done       -187.539123551015          0.000401388202
! CAM-B3LYP def2-SVP def2/J RIJCOSX Grid4 TightSCF
%maxcore 5000
%tddft
    Mode sTDDFT
    Ethresh 5.0
    maxcore 5000
end

%pal
  nprocs 6
  end
* xyz 0 1
   C        7.53215         8.30961        -6.21832
   C        6.51414         9.18856        -6.46451
   F        6.32586         9.65073        -7.71312
   C        5.64587         9.63416        -5.45832
   C        5.81960         9.17382        -4.18292
   C        6.85260         8.26538        -3.87271
   C        7.72793         7.82766        -4.90968
   C        8.77996         6.92715        -4.62068
   C        8.94463         6.47986        -3.33848
   C        8.05175         6.90048        -2.31023
   C        7.03417         7.77615        -2.55990
   C        8.41092         6.23086        -1.04652
   O        7.90572         6.36836         0.04375
   C        9.49273         5.27136        -1.41002
   C        9.94126         5.58913        -2.75040
   C       11.18470         5.34524        -3.26914
   C       12.20687         4.68178        -2.56139
   N       13.07059         4.17762        -1.99855
   C       11.60908         5.81576        -4.52937
   N       11.99480         6.19374        -5.54140
   C        9.82381         4.26674        -0.55319
   C       10.47584         3.04985        -0.85988
   O       11.10325         2.37864         0.13600
   C       11.66008         1.27130        -0.39056
   C       11.36278         1.19653        -1.74522
   C       10.59624         2.32560        -2.05157
   C        9.98735         2.60294        -3.37437
   O       10.63857         2.63047        -4.38808
   C        8.48553         2.75161        -3.36051
   C       12.43155         0.38455         0.39904
   S       13.18173        -0.97840        -0.34068
   C       13.90902        -1.52002         1.13809
   C       13.56029        -0.65850         2.19365
   C       12.72785         0.42814         1.76896
   C       12.28746         1.39705         2.69093
   C       12.65713         1.27834         3.99852
   F       12.25002         2.18430         4.89848
   C       13.46338         0.20074         4.42855
   F       13.79336         0.11104         5.72713
   C       13.90898        -0.74918         3.55586
   C       14.71431        -2.68476         1.03902
   C       15.46893        -3.29814         1.98050
   C       16.23959        -4.46253         1.67427
   C       17.01138        -5.14648         2.53728
   C       17.15609        -4.81409         3.99002
   C       17.80052        -6.33983         2.06531
   N       17.31416        -7.54581         2.69303
   C       18.08063        -8.54293         3.14086
   C       17.59385        -9.73697         3.58645
   C       18.43712       -10.77799         3.99312
   C       18.10185       -12.06810         4.31732
   C       19.07397       -12.89337         5.06726
   O       20.24020       -12.63272         5.27840
   C       18.31247       -14.06626         5.54306
   C       18.71686       -15.08281         6.35745
   C       17.79064       -16.08777         6.71841
   C       16.45490       -16.01070         6.22941
   C       15.53213       -17.00722         6.60221
   C       15.93769       -18.02570         7.41867
   C       17.24734       -18.12150         7.90687
   C       18.15521       -17.16099         7.55625
   F       15.05640       -18.97981         7.77616
   C       16.06730       -14.94909         5.37793
   C       16.98494       -13.99498         5.03267
   C       16.88551       -12.82292         4.16036
   C       15.89134       -12.63533         3.22879
   C       15.91293       -11.67671         2.19886
   N       15.87887       -10.94196         1.31528
   C       14.74889       -13.45320         3.12210
   N       13.78375       -14.06301         2.99398
   H        8.18470         7.99161        -7.01629
   H        4.86120        10.32910        -5.71204
   H        5.16332         9.50244        -3.39121
   H        9.42442         6.60341        -5.42265
   H        6.37415         8.09112        -1.76562
   H        9.49434         4.38328         0.47394
   H       11.65474         0.42018        -2.42233
   H        8.12336         3.19473        -2.43809
   H        8.06270         1.75011        -3.44694
   H        8.15815         3.33007        -4.22120
   H       11.67146         2.22081         2.37357
   H       14.51190        -1.55403         3.93561
   H       14.72217        -3.11681         0.04442
   H       15.53144        -2.91696         2.98467
   H       16.19334        -4.79695         0.64539
   H       16.19631        -4.57291         4.44095
   H       17.81278        -3.95289         4.11788
   H       17.58876        -5.65223         4.53069
   H       18.85452        -6.21769         2.33327
   H       17.72953        -6.43025         0.97395
   H       16.32185        -7.72037         2.61193
   H       19.14854        -8.36532         3.12018
   H       16.52501        -9.88343         3.59925
   H       19.48742       -10.54039         4.13026
   H       19.73164       -15.12087         6.72445
   H       14.51611       -16.96731         6.24155
   H       17.51018       -18.94853         8.54724
   H       19.17043       -17.21272         7.92023
   H       15.04761       -14.91574         5.02876
*
