# ORCA input file
# SCF done       -192.010041726471          0.000935991237
! CAM-B3LYP def2-SVP def2/J RIJCOSX Grid4 TightSCF
%maxcore 5000
%tddft
    Mode sTDDFT
    Ethresh 5.0
    maxcore 5000
end

%pal
  nprocs 6
  end
* xyz 0 1
   C      -13.50079        -3.82297         4.26046
   C      -14.35484        -4.87419         4.47651
   C      -15.31950        -4.91010         5.50362
   N      -16.12287        -4.98454         6.31991
   C      -14.32973        -6.07029         3.72965
   N      -14.32263        -7.07773         3.17914
   C      -13.38015        -2.62677         5.08448
   C      -12.26827        -1.87425         4.63014
   C      -11.89713        -0.68468         5.20700
   C      -12.65813        -0.21529         6.28361
   C      -13.76822        -0.97279         6.72816
   C      -14.14374        -2.17710         6.14465
   S      -14.57582        -0.20312         8.05948
   C      -13.42800         1.10799         8.00308
   C      -12.48624         0.97692         7.03798
  Br      -13.57943         2.52453         9.22262
   C      -11.65451        -2.55236         3.47186
   O      -10.73322        -2.14460         2.79260
   C      -12.48086        -3.75583         3.23784
   C      -12.41705        -4.51393         2.09712
   C      -11.34936        -4.53136         1.17749
   O      -11.67104        -4.77231        -0.13755
   C      -10.59266        -4.64523        -0.87565
   C       -9.49585        -4.36276        -0.09251
   N       -8.17449        -4.17695        -0.53720
   O       -7.95639        -4.27748        -1.72450
   O       -7.32742        -3.93399         0.31092
   C       -9.95889        -4.31998         1.26994
   N       -9.13222        -4.23280         2.31915
   C       -9.40993        -4.52234         3.63216
   C       -8.54634        -4.32473         4.63752
   C       -7.17297        -3.76102         4.46493
   C       -8.94737        -4.72268         6.03682
   N       -8.37663        -5.99902         6.39948
   C       -7.31745        -6.15684         7.22394
   C       -6.64510        -7.32408         7.34363
   C       -5.59616        -7.65248         8.24770
   S       -5.31032        -9.34613         8.50614
   C       -4.06631        -9.02577         9.68020
   C       -3.88211        -7.65725         9.82970
   C       -4.72518        -6.88618         9.01384
   C       -4.63708        -5.37920         8.96257
   C       -4.67485        -4.91359         7.59531
   N       -4.65959        -4.52011         6.52169
   C       -3.33154        -4.87318         9.59802
   C       -3.12395        -5.54130        10.94785
   C       -2.85039        -7.03939        10.74233
   C       -2.78681        -7.65997        12.04668
   N       -2.70377        -8.08225        13.10643
   C       -3.46495       -10.07715        10.40502
   C       -3.70170       -11.39966        10.20303
   C       -3.16661       -12.42437        11.02013
   C       -2.80553       -12.34659        12.33319
   C       -1.90169       -13.38260        12.90305
   O       -1.58850       -14.43218        12.38614
   C       -1.43173       -12.82825        14.18755
   C       -0.48565       -13.31225        15.04436
   C       -0.16253       -12.57010        16.20281
   C       -0.81544       -11.32530        16.44099
   C       -0.47211       -10.58223        17.58733
   C        0.46989       -11.07222        18.44777
   C        1.11838       -12.29619        18.23509
   C        0.80087       -13.02812        17.12491
   F        0.79873       -10.36374        19.54531
   C       -1.79780       -10.85209        15.54036
   C       -2.11199       -11.60359        14.44163
   C       -3.08652       -11.38087        13.37655
   C       -4.19760       -10.59175        13.51351
   C       -5.24049       -10.48008        12.57462
   N       -6.14332       -10.34020        11.87841
   C       -4.48844        -9.84398        14.67504
   N       -4.80215        -9.23716        15.59732
   H      -11.04905        -0.13026         4.83715
   H      -15.00288        -2.71447         6.51036
   H      -11.70473         1.69323         6.86194
   H      -13.28432        -5.08521         1.79054
   H      -10.67099        -4.76286        -1.93991
   H       -8.18041        -3.94901         2.08463
   H      -10.38302        -4.95424         3.81148
   H       -6.74240        -4.01027         3.49788
   H       -6.50270        -4.13345         5.23703
   H       -7.20386        -2.67421         4.54540
   H      -10.03903        -4.79312         6.11053
   H       -8.59719        -3.97559         6.75231
   H       -8.58168        -6.76349         5.77224
   H       -7.09735        -5.29401         7.83300
   H       -6.98031        -8.15498         6.73574
   H       -5.49064        -4.94338         9.50206
   H       -3.38128        -3.78892         9.71358
   H       -2.49100        -5.10334         8.93789
   H       -4.01521        -5.41623        11.56813
   H       -2.28140        -5.08625        11.47155
   H       -1.85807        -7.16692        10.28170
   H       -2.76978        -9.79182        11.18318
   H       -4.28684       -11.70305         9.34451
   H       -2.97646       -13.38350        10.54855
   H        0.01343       -14.24793        14.84099
   H       -0.95570        -9.63831        17.78436
   H        1.85252       -12.63297        18.94977
   H        1.28787       -13.97369        16.93893
   H       -2.26664        -9.89944        15.72787
*
