# ORCA input file
# SCF done       -215.621321298175          0.000864538659
! CAM-B3LYP def2-SVP def2/J RIJCOSX Grid4 TightSCF
%maxcore 5000
%tddft
    Mode sTDDFT
    Ethresh 5.0
    maxcore 5000
end

%pal
  nprocs 6
  end
* xyz 0 1
   C       -4.17557        -0.11092        -4.27694
   C       -5.01295        -0.98219        -4.92117
   C       -4.57635        -2.11595        -5.63969
   N       -4.28712        -3.05355        -6.23544
   C       -6.42152        -0.89908        -4.94435
   N       -7.56795        -0.90850        -5.01305
   C       -2.72094        -0.19839        -4.24326
   C       -2.21571         0.82627        -3.40490
   C       -0.87269         1.00207        -3.17753
   C        0.01768         0.13515        -3.81945
   C       -0.49545        -0.88475        -4.65674
   C       -1.85368        -1.06966        -4.87832
   S        0.77750        -1.84298        -5.35065
   C        1.96484        -0.87236        -4.52109
   C        1.43798         0.11743        -3.76151
  Br        3.78702        -1.25849        -4.73479
   C       -3.33990         1.60650        -2.85275
   O       -3.28838         2.42109        -1.95982
   C       -4.55878         1.06964        -3.51770
   C       -5.80928         1.56896        -3.36432
   C       -6.12959         2.85083        -2.80488
   C       -7.33070         3.03159        -2.11681
   O       -8.02630         1.89234        -1.96178
   C       -9.39527         1.82051        -1.61508
   C       -7.70726         4.31314        -1.55151
   O       -8.88390         4.28102        -0.87134
   C       -9.60899         5.45278        -0.57508
   C       -6.91035         5.42761        -1.71138
   C       -5.72499         5.26732        -2.47865
   C       -5.32860         3.99789        -3.01757
   N       -4.22901         4.19525        -3.71404
   O       -3.94337         5.49217        -3.59695
   N       -4.82781         6.15587        -2.85365
   C       -7.05051         6.72345        -1.03317
   C       -6.94263         6.77902         0.32152
   S       -6.81748         8.37171         0.95897
   C       -6.87984         9.01583        -0.65105
   C       -7.03932         8.03177        -1.63931
   C       -7.12220         8.42521        -2.99543
   C       -7.62189         7.44447        -4.02023
   C       -9.14933         7.54218        -4.10919
   C       -6.86269         9.74560        -3.35421
   C       -6.58833        10.10560        -4.79374
   C       -7.81608        10.47373        -5.63482
   C       -6.73989        10.73931        -2.35144
   C       -6.56923        12.17694        -2.44936
   C       -6.45013        12.75804        -1.20999
   S       -6.57178        11.67665         0.10257
   C       -6.76890        10.34930        -1.00356
   C       -6.61407        12.97315        -3.63846
   C       -6.16193        14.24735        -3.74611
   C       -6.26356        14.99181        -4.94376
   S       -6.67823        14.21888        -6.43163
   C       -6.58840        15.69146        -7.35025
   C       -6.23178        16.76547        -6.50208
   C       -6.05334        16.36983        -5.14487
   C       -5.72890        17.36018        -4.18184
   C       -5.56989        17.07150        -2.80941
   N       -5.43443        16.89900        -1.68277
   C       -5.57420        18.67417        -4.58268
   C       -5.74136        19.04186        -5.92183
   C       -6.07261        18.11071        -6.87214
   C       -6.71400        15.74634        -8.73987
   C       -7.08599        14.78230        -9.64346
   C       -7.76789        13.52163        -9.51426
   C       -8.75899        13.21790        -8.61054
   C       -9.42144        11.97864        -8.55325
   N       -9.95688        10.96863        -8.43924
   C       -9.28345        14.16483        -7.70990
   N       -9.76559        14.93187        -7.00379
   C       -7.43828        12.72564       -10.69407
   C       -6.78866        13.56466       -11.63390
   C       -6.61374        14.90877       -11.04263
   O       -6.13861        15.89301       -11.56550
   C       -6.39520        13.11755       -12.87071
   C       -6.64031        11.77642       -13.18794
   C       -7.27451        10.94433       -12.23592
   C       -7.68538        11.39989       -10.98819
   S       -7.46451         9.32272       -12.83076
   C       -6.70492         9.77981       -14.33233
   C       -6.32614        11.07848       -14.38650
  Br       -6.48211         8.49847       -15.68435
   H       -0.51994         1.79065        -2.53176
   H       -2.19388        -1.86152        -5.52448
   H        2.02519         0.80791        -3.18409
   H       -6.66468         0.98775        -3.68282
   H       -9.55627         2.03823        -0.55826
   H       -9.67250         0.78652        -1.82174
   H      -10.00502         2.48789        -2.22596
   H      -10.64548         5.13035        -0.46739
   H       -9.53626         6.18787        -1.37775
   H       -9.27376         5.90780         0.36005
   H       -6.86997         5.94400         0.99235
   H       -7.36201         6.42556        -3.74734
   H       -7.19467         7.64209        -5.00107
   H       -9.60612         7.28586        -3.15507
   H       -9.52526         6.85740        -4.86594
   H       -9.46299         8.55007        -4.36385
   H       -6.07369         9.26952        -5.27046
   H       -5.87945        10.93512        -4.79384
   H       -8.33229         9.58728        -5.98990
   H       -7.50922        11.04516        -6.50912
   H       -8.52940        11.06763        -5.06680
   H       -6.35164        13.80551        -1.00061
   H       -7.09408        12.54817        -4.50410
   H       -5.69927        14.74052        -2.90632
   H       -5.32645        19.42371        -3.84599
   H       -5.61450        20.07658        -6.20021
   H       -6.21612        18.40669        -7.89911
   H       -6.34801        16.65717        -9.20430
   H       -5.91310        13.77884       -13.57337
   H       -8.16337        10.73059       -10.29187
   H       -5.84403        11.52788       -15.23536
*
