# ORCA input file
# SCF done       -182.550826841528          0.000599537362
! CAM-B3LYP def2-SVP def2/J RIJCOSX Grid4 TightSCF
%maxcore 5000
%tddft
    Mode sTDDFT
    Ethresh 5.0
    maxcore 5000
end

%pal
  nprocs 6
  end
* xyz 0 1
   C       -4.36461         1.98492         5.27402
   C       -3.26195         2.69736         5.69923
   C       -2.20671         2.12639         6.43248
   N       -1.30212         1.69194         6.99332
   C       -3.00811         4.06315         5.47604
   N       -2.70814         5.16788         5.36050
   C       -4.61591         0.57915         5.60521
   C       -5.86132         0.20778         5.04649
   C       -6.38951        -1.05114         5.17031
   C       -5.65713        -1.99460         5.90104
   C       -4.43136        -1.60922         6.48357
   C       -3.89093        -0.33434         6.34550
   S       -3.71189        -2.91669         7.37986
   C       -5.04453        -3.95138         6.94244
   C       -5.98476        -3.35097         6.17743
  Br       -5.06981        -5.72951         7.53695
   C       -6.46588         1.39703         4.41228
   O       -7.62779         1.49025         4.04104
   C       -5.45997         2.45099         4.46637
   C       -5.57296         3.73422         3.93316
   C       -6.45531         4.29229         3.02626
   C       -7.39794         3.77807         2.13122
   C       -8.18614         4.62084         1.31823
   C       -8.98608         3.96251         0.42345
   C       -8.83539         2.56921         0.47969
   S       -7.68551         2.12089         1.71320
   C       -9.53442         1.61101        -0.25953
   C      -10.49678         1.83174        -1.25270
   C      -11.04386         0.67599        -1.75335
   C      -10.53155        -0.49514        -1.17769
   S       -9.31295        -0.09713         0.00985
   C      -10.96452        -1.78736        -1.47139
   C      -10.52175        -2.97398        -0.93753
   S       -9.20458        -3.08758         0.20349
   C       -9.34178        -4.82647         0.33799
   C      -10.40235        -5.30183        -0.48477
   C      -11.05126        -4.27447        -1.20810
   C      -12.09901        -4.59339        -2.07043
   C      -12.49845        -5.90487        -2.21767
   S      -13.82067        -6.28355        -3.31520
   C      -11.85230        -6.93377        -1.49534
   O      -12.28876        -8.21146        -1.67926
   C      -10.81733        -6.62854        -0.64115
   C       -8.49377        -5.56722         1.13769
   C       -7.40192        -5.04061         1.81562
   C       -6.54848        -5.78326         2.60230
   C       -5.39239        -5.27955         3.19385
   C       -4.48846        -5.97440         4.00934
   C       -3.41507        -5.22366         4.41984
   C       -3.43208        -3.90748         3.93663
   S       -4.84785        -3.63379         2.95211
   C       -2.50462        -2.89600         4.16804
   C       -1.35038        -2.95787         4.97269
   C       -0.65336        -1.78502         5.02121
   C       -1.22719        -0.74568         4.25582
   S       -2.68048        -1.31281         3.45749
   C       -0.77010         0.54573         4.14227
   C       -1.43359         1.53727         3.40880
   O       -2.56104         1.23749         2.69319
   C       -1.19195         2.89769         3.27088
   C       -0.29589         3.98949         3.65678
   O        0.70512         3.99637         4.32263
   N       -0.85505         5.10595         3.03050
   C       -2.00926         4.86560         2.30296
   O       -2.64754         5.69241         1.70244
   C       -2.21573         3.41668         2.44318
   C       -3.03767         2.36356         2.09946
   C       -4.18558         2.27966         1.24813
   C       -4.65831         3.33496         0.58375
   H       -7.34036        -1.30194         4.72735
   H       -2.94929        -0.09701         6.81098
   H       -6.87187        -3.84064         5.81844
   H       -4.83766         4.44048         4.29799
   H       -6.37274         5.37153         2.95034
   H       -8.15355         5.69092         1.42256
   H       -9.67153         4.44882        -0.24663
   H      -10.77694         2.81813        -1.57406
   H      -11.80506         0.64830        -2.51303
   H      -11.76471        -1.85051        -2.19725
   H      -12.60952        -3.82884        -2.63339
   H      -13.78978        -7.59231        -3.08845
   H      -11.77225        -8.81759        -1.13548
   H      -10.32789        -7.42102        -0.09318
   H       -8.67676        -6.63046         1.21623
   H       -7.19356        -3.98423         1.69486
   H       -6.76167        -6.83115         2.77073
   H       -4.64481        -7.00216         4.28514
   H       -2.62740        -5.59574         5.04971
   H       -1.06749        -3.85018         5.50122
   H        0.24425        -1.62648         5.59071
   H        0.12115         0.84661         4.66992
   H       -0.48880         6.03686         3.16955
   H       -4.63761         1.30053         1.17052
   H       -4.20124         4.30629         0.67317
   H       -5.50797         3.24735        -0.06978
*
