# ORCA input file
# SCF done       -168.419419106341          0.000475316434
! CAM-B3LYP def2-SVP def2/J RIJCOSX Grid4 TightSCF
%maxcore 5000
%tddft
    Mode sTDDFT
    Ethresh 5.0
    maxcore 5000
end

%pal
  nprocs 6
  end
* xyz 0 1
   C        4.91075        -0.01418        -6.81098
   C        5.46008        -0.18555        -5.60163
   C        6.51507         0.58083        -5.00026
   C        6.85934         0.17710        -3.75896
   C        6.11109        -0.93509        -3.27399
   S        4.94766        -1.45296        -4.47454
   C        6.22877        -1.54815        -2.05028
   C        7.11446        -1.21010        -0.99441
   C        6.97434        -1.98729         0.10929
   C        5.96798        -2.98444        -0.00506
   S        5.21987        -2.90873        -1.58533
   C        5.58733        -3.87090         0.96762
   C        4.55823        -4.81320         0.81100
   O        3.91359        -4.94972        -0.38206
   C        3.98627        -5.70098         1.71182
   C        4.05017        -6.19588         3.08409
   O        4.77039        -5.90273         4.00514
   N        3.04018        -7.15736         3.13083
   C        2.33367        -7.34112         1.94327
   O        1.44811        -8.13791         1.78122
   C        2.95069        -6.37709         1.02490
   C        2.93258        -5.88995        -0.26886
   C        2.12787        -6.17891        -1.39960
   C        0.99155        -6.91276        -1.34195
   C        0.17812        -7.17193        -2.47561
   S        0.74453        -6.99153        -4.10954
   C       -0.81437        -7.42504        -4.76211
   C       -1.72188        -7.70243        -3.74503
   C       -1.14379        -7.56784        -2.47673
   S       -2.03883        -7.83929        -0.94994
   O       -1.87703        -6.68614        -0.10812
   O       -1.66199        -9.12266        -0.43045
   C       -3.75511        -7.94045        -1.54070
   C       -3.72960        -8.85386        -2.74780
   C       -3.13308        -8.14906        -3.96498
   C       -0.96050        -7.46885        -6.17718
   C       -2.11754        -7.34026        -6.86834
   C       -2.19917        -7.41877        -8.28325
   O       -1.15083        -7.84082        -9.04386
   C       -3.25197        -7.11607        -9.12345
   C       -4.63508        -6.63994        -9.16372
   O       -5.39334        -6.32901        -8.27940
   N       -4.93230        -6.61992       -10.52290
   C       -3.89815        -7.03551       -11.36828
   O       -3.97228        -7.08785       -12.56986
   C       -2.81152        -7.35487       -10.44799
   C       -1.50677        -7.81668       -10.36238
   C       -0.62799        -8.26000       -11.37148
   C        0.57864        -8.84893       -11.12436
   C        1.42162        -9.34262       -12.12947
   C        2.58050       -10.04027       -11.89601
   C        3.44925       -10.59098       -12.87369
   C        4.50309       -11.28041       -12.36350
   C        4.53497       -11.31710       -10.94712
   S        3.17725       -10.42145       -10.29027
   C        5.44644       -11.95642       -10.14042
   C        6.56729       -12.73281       -10.55329
   C        7.27917       -13.26580        -9.53692
   C        6.77559       -12.94920        -8.23042
   S        5.33976       -11.92465        -8.39390
   C        7.26530       -13.33855        -7.04606
   H        5.25168         0.77076        -7.46284
   H        4.11851        -0.64675        -7.16701
   H        6.96579         1.40199        -5.52882
   H        7.62695         0.63721        -3.16260
   H        7.82036        -0.40358        -1.07981
   H        7.54964        -1.88180         1.01182
   H        6.07212        -3.84730         1.93123
   H        2.83602        -7.68760         3.96567
   H        2.45183        -5.73551        -2.33267
   H        0.62923        -7.30061        -0.39918
   H       -4.08151        -6.93034        -1.77128
   H       -4.33985        -8.34694        -0.72015
   H       -3.13024        -9.73069        -2.49149
   H       -4.73917        -9.19018        -2.99368
   H       -3.75317        -7.27946        -4.20743
   H       -3.16030        -8.82024        -4.82715
   H       -0.04118        -7.57935        -6.73771
   H       -3.05335        -7.11063        -6.38625
   H       -5.83306        -6.33073       -10.87613
   H       -0.99145        -8.14629       -12.38229
   H        0.89650        -8.97226       -10.09677
   H        1.13140        -9.19028       -13.16061
   H        3.25697       -10.46149       -13.92421
   H        5.25392       -11.76608       -12.96051
   H        6.80067       -12.86955       -11.59422
   H        8.15280       -13.88228        -9.65306
   H        8.13869       -13.96422        -6.99191
   H        6.80662       -13.04424        -6.11996
*
