# ORCA input file
# SCF done       -170.752070426046          0.000793072507
! CAM-B3LYP def2-SVP def2/J RIJCOSX Grid4 TightSCF
%maxcore 5000
%tddft
    Mode sTDDFT
    Ethresh 5.0
    maxcore 5000
end

%pal
  nprocs 6
  end
* xyz 0 1
   C        0.05660        -0.81524        -0.12460
   S        0.05112         0.72040         0.63272
   C        1.18551         1.34580        -0.53329
   C        1.53618         0.37596        -1.44654
   C        0.87725        -0.85583        -1.21087
   C        1.12944        -2.09239        -2.03318
   C        1.95567        -2.97853        -1.23767
   N        2.62453        -3.65197        -0.60124
   C        1.84507        -1.75240        -3.34827
   C        3.01737        -0.81455        -3.07747
   C        2.50292         0.54768        -2.58646
   C        1.80446         1.21256        -3.66867
   N        1.22446         1.70858        -4.51947
   C        1.62437         2.70420        -0.42369
   S        1.53909         3.51210         1.11897
   C        2.17666         4.98886         0.45828
   C        2.45025         4.82827        -0.89717
   C        2.13034         3.54281        -1.38452
   C        3.06277         5.78103        -1.72984
   N        3.60669         6.49000        -2.44958
   C        2.32587         6.11379         1.31272
   C        2.54454         7.38031         0.88036
   C        2.66989         8.57132         1.64250
   N        2.89668         8.74278         2.99715
   C        3.22747         7.74780         3.98897
   C        4.57114         7.07926         3.71353
   C        2.92951        10.10289         3.34608
   O        3.12793        10.50021         4.48548
   C        2.68243        10.80814         2.11804
   C        2.54185         9.83986         1.09229
   C        2.26253        10.53194        -0.14721
   O        2.05110        10.14285        -1.27337
   N        2.27705        11.89843         0.21683
   C        1.99833        12.93038        -0.75236
   C        0.55710        13.42493        -0.65799
   C        2.51231        12.07329         1.55550
   C        2.56097        13.34634         2.18493
   C        2.79605        13.44361         3.51187
   N        2.85321        14.60828         4.23186
   C        3.14094        14.64537         5.58862
   C        3.42714        13.43827         6.38743
   C        3.11040        15.95012         5.99183
   C        2.78478        16.78129         4.86143
   C        2.61387        15.92935         3.71418
   O        2.33808        16.17392         2.56379
   C        2.73392        18.08267         5.26691
   C        2.40070        19.29001         4.48550
   N        3.01983        18.11419         6.62029
   C        3.26338        16.80577         7.13895
   O        3.52049        16.58781         8.30196
   C        3.10977        19.26573         7.39285
   S        4.14748        20.58332         6.91124
   C        3.68363        21.48623         8.29472
   C        2.80959        20.81243         9.08681
   C        2.49368        19.52141         8.58689
   C        1.50936        18.60295         9.26066
   C        0.35688        18.51894         8.39156
   N       -0.52974        18.48770         7.66996
   C        1.12484        19.10527        10.65989
   C        0.88729        20.61179        10.66023
   C        2.19965        21.34890        10.35276
   C        3.14656        21.16455        11.43392
   N        3.89772        21.00760        12.28010
   H       -0.54393        -1.60785         0.27593
   H        0.18408        -2.61051        -2.23473
   H        1.13822        -1.27114        -4.02868
   H        2.19987        -2.67200        -3.81771
   H        3.60220        -0.67262        -3.98828
   H        3.66923        -1.24797        -2.31484
   H        3.34303         1.18220        -2.27769
   H        2.23505         3.28587        -2.42283
   H        2.19100         5.89907         2.36217
   H        2.57324         7.56730        -0.18569
   H        2.42580         7.00790         4.06556
   H        3.27668         8.29334         4.93696
   H        4.56549         6.56442         2.75572
   H        4.78960         6.35908         4.49743
   H        5.36076         7.82667         3.69803
   H        2.16665        12.47502        -1.73240
   H        2.70060        13.75744        -0.61881
   H       -0.13016        12.59631        -0.81124
   H        0.37603        14.17346        -1.42416
   H        0.35942        13.86768         0.31543
   H        2.40446        14.22752         1.58564
   H        2.95453        12.54529         4.09445
   H        2.58776        12.74304         6.36308
   H        3.62308        13.73155         7.41510
   H        4.29242        12.90549         5.99267
   H        2.00386        18.98645         3.52068
   H        3.28719        19.90340         4.32253
   H        1.66409        19.89384         5.01492
   H        4.08174        22.47116         8.43818
   H        1.94315        17.59773         9.34105
   H        1.93391        18.86604        11.35398
   H        0.22534        18.58374        10.99287
   H        0.50921        20.92963        11.63375
   H        0.14534        20.87267         9.90109
   H        2.02060        22.42652        10.25308
*
