# ORCA input file
# SCF done        -90.564770458223          0.000430763124
! CAM-B3LYP def2-SVP def2/J RIJCOSX Grid4 TightSCF
%maxcore 5000
%tddft
    Mode sTDDFT
    Ethresh 5.0
    maxcore 5000
end

%pal
  nprocs 6
  end
* xyz 0 1
   C        1.19315        -0.66881         2.99592
   S       -0.09687        -1.03345         1.88379
   C        0.84532        -0.33269         0.64078
   C        2.04165         0.11660         1.14227
   N        2.20598        -0.08927         2.47871
   C        3.06994         0.75411         0.37382
   S        4.57582         1.28275         1.09422
   C        4.99842         1.82292        -0.53253
   N        4.05513         1.58240        -1.39781
   N        2.99667         0.99540        -0.89862
   C        6.24833         2.43576        -0.81923
   C        6.58314         2.84062        -2.06620
   C        7.81814         3.43300        -2.43435
   N        8.06183         3.79119        -3.74620
   C        9.31526         4.30504        -3.83058
   C       10.25875         4.83467        -4.70540
   C       11.38873         5.12108        -3.92975
   N       11.13702         4.78061        -2.61438
   C        9.88035         4.27648        -2.52895
   C        8.94234         3.73229        -1.65666
   C       12.64947         5.64555        -4.30751
   C       13.01421         5.99084        -5.56545
   C       14.31464         6.47341        -5.86404
   S       14.80521         6.89268        -7.50509
   C       16.37686         7.27330        -6.79445
   N       16.39756         7.07763        -5.50968
   N       15.27860         6.64293        -5.00149
   C       17.46637         7.72884        -7.58850
   C       18.68109         8.00838        -7.07516
   C       19.79161         8.45243        -7.84539
   S       19.69836         8.68533        -9.60080
   C       21.34365         9.16336        -9.57191
   C       21.83329         9.11840        -8.29997
   N       20.96070         8.72286        -7.36028
   H        1.11483        -0.92462         4.03330
   H        0.50325        -0.27807        -0.37148
   H        6.92804         2.55677         0.00961
   H        5.85500         2.69224        -2.85259
   H        7.40486         3.67063        -4.49779
   H       10.16377         4.99600        -5.75967
   H       11.79884         4.88766        -1.86500
   H        9.04044         3.56422        -0.60382
   H       13.38603         5.76634        -3.52413
   H       12.32796         5.89800        -6.39270
   H       17.27733         7.83731        -8.64821
   H       18.85741         7.89422        -6.01550
   H       21.84613         9.44425       -10.47502
   H       22.83749         9.36978        -8.00986
*
