# ORCA input file
# SCF done       -215.712278661709          0.000509566807
! CAM-B3LYP def2-SVP def2/J RIJCOSX Grid4 TightSCF
%maxcore 5000
%tddft
    Mode sTDDFT
    Ethresh 5.0
    maxcore 5000
end

%pal
  nprocs 6
  end
* xyz 0 1
   C        3.71945         1.86827         5.26250
   C        4.58726         2.92752         5.08334
   C        4.88839         3.13470         3.68919
   N        5.70678         4.09759         3.27214
   C        6.23397         4.86664         4.20083
   C        7.14828         5.93882         3.74018
   O        7.42819         6.10313         2.57051
   C        7.69625         6.79252         4.80891
   C        7.42050         6.62094         6.10500
   C        6.53661         5.55958         6.62522
   O        6.32041         5.42762         7.80860
   C        5.93514         4.67175         5.59074
   N        5.13421         3.72523         6.01675
   C        4.23550         2.22540         2.85257
   S        3.27157         1.13617         3.78480
   C        4.36261         2.21817         1.45112
   S        5.37946         3.38637         0.64774
   C        3.78194         1.38378         0.52295
   C        2.86483         0.24172         0.55528
   O        2.34469        -0.29393         1.50807
   N        2.71583        -0.12280        -0.77032
   C        1.85911        -1.20380        -1.20928
   C        0.46824        -0.69439        -1.57021
   C        3.44316         0.67494        -1.66461
   O        3.45747         0.51642        -2.85533
   C        4.13495         1.65905        -0.81036
   C        5.00377         2.72536        -0.94848
   C        5.56447         3.27601        -2.12357
   C        6.42841         4.32627        -2.07693
   C        7.03140         4.91346        -3.21221
   N        7.94035         5.94333        -3.13772
   C        8.46079         6.54678        -1.93314
   C        9.51428         5.66892        -1.26303
   C        8.40109         6.33200        -4.40653
   O        9.23565         7.19398        -4.58761
   C        7.67501         5.47850        -5.32641
   C        6.85550         4.61371        -4.56354
   C        6.14582         3.74602        -5.47934
   O        5.34045         2.85800        -5.30156
   N        6.58828         4.15518        -6.75295
   C        6.17382         3.45890        -7.94700
   C        7.24607         2.48535        -8.43134
   C        7.49597         5.18110        -6.67578
   C        8.10839         5.77984        -7.80965
   C        8.94583         6.83422        -7.70623
   C        9.63305         7.45195        -8.80803
   C       10.29464         6.77858        -9.85900
   C       10.47246         5.31338        -9.91857
   O       10.10752         4.47547        -9.14771
   S       11.41131         4.88683       -11.38842
   C       11.56983         6.59439       -11.90186
   O       12.11292         6.90854       -12.92010
   C       10.94022         7.46621       -10.89119
   C       10.98564         8.87424       -10.97861
   C       10.38885         9.53494        -9.88943
   C        9.75124         8.85064        -8.86534
   C        9.22932         9.85895        -7.90988
   O        8.53217         9.72667        -6.95563
   O        9.67890        11.08508        -8.34302
   C       10.39397        10.97368        -9.50915
   O       10.92534        11.90777       -10.02215
   C       11.61398         9.55574       -12.07673
   C       11.14988        10.69709       -12.62771
   C       11.76239        11.36075       -13.71814
   C       11.24262        12.47059       -14.39132
   C       12.11032        12.94465       -15.44370
   N       11.77473        14.01280       -16.18672
   C       10.62739        14.58224       -15.91450
   C       10.26011        15.77690       -16.72613
   O       10.96133        16.20537       -17.61439
   C        8.97539        16.40773       -16.36731
   C        8.15547        15.93717       -15.42373
   C        8.43442        14.72693       -14.62742
   O        7.64058        14.28438       -13.82713
   C        9.75243        14.08989       -14.88823
   N       10.06604        13.05463       -14.14464
   C       13.25699        12.18358       -15.55404
   S       13.28917        10.92476       -14.40959
   H        3.33536         1.50069         6.19283
   H        8.35285         7.58375         4.47266
   H        7.84498         7.26810         6.86083
   H        1.80279        -1.92572        -0.39119
   H        2.33102        -1.66371        -2.08092
   H        0.00157        -0.22685        -0.70600
   H       -0.15297        -1.52299        -1.89770
   H        0.53427         0.03331        -2.37557
   H        5.27997         2.82132        -3.06508
   H        6.67902         4.74305        -1.10983
   H        7.64015         6.75639        -1.24242
   H        8.91320         7.49302        -2.24217
   H        9.10114         4.69967        -0.99387
   H        9.87001         6.15522        -0.35952
   H       10.35565         5.51526        -1.93452
   H        5.92165         4.18452        -8.72550
   H        5.26981         2.90672        -7.67477
   H        8.18049         3.00044        -8.64315
   H        6.90668         1.98501        -9.33413
   H        7.43308         1.73391        -7.66842
   H        7.86223         5.37242        -8.77878
   H        9.09063         7.30659        -6.74096
   H       12.47084         9.06774       -12.52171
   H       10.23628        11.16395       -12.28738
   H        8.72848        17.29284       -16.93824
   H        7.21603        16.42426       -15.19888
   H       14.06190        12.31790       -16.24850
*
