# ORCA input file
# SCF done       -225.440746576720          0.000621161293
! CAM-B3LYP def2-SVP def2/J RIJCOSX Grid4 TightSCF
%maxcore 5000
%tddft
    Mode sTDDFT
    Ethresh 5.0
    maxcore 5000
end

%pal
  nprocs 6
  end
* xyz 0 1
   C        2.33437        -0.75990        -0.64823
   O        2.80453        -1.79122        -0.22949
   C        3.02100         0.54229        -0.75009
   C        2.25083         1.42864        -1.52344
   C        2.71668         2.71238        -1.76027
   C        3.93837         3.08859        -1.21515
   C        4.69509         2.20006        -0.44690
   C        4.23822         0.90976        -0.21561
  Br        6.34901         2.74141         0.28463
  Br        4.57256         4.83909        -1.53501
   C        1.01972         0.75943        -1.93549
   C        0.02047         1.31835        -2.68570
   C        0.06445         2.62695        -3.21439
   N        0.04736         3.67717        -3.67551
   C       -1.18453         0.67405        -3.04012
   N       -2.18745         0.21670        -3.36003
   C        1.02684        -0.56527        -1.34303
   C        0.07392        -1.52895        -1.46066
   C        0.01429        -2.67107        -0.61984
   S       -0.68225        -4.18409        -1.16803
   C        0.36758        -2.78547         0.70610
   C        0.86157        -1.90032         1.78155
   O        1.12095        -0.72169         1.76126
   N        0.92605        -2.71179         2.90185
   C        1.43886        -2.25204         4.17529
   C        2.95454        -2.40258         4.23781
   C        0.49898        -4.02071         2.68108
   O        0.46093        -4.88604         3.51859
   C        0.11070        -4.04966         1.26279
   C       -0.44682        -4.96129         0.38626
   C       -0.78090        -6.30761         0.65648
   C       -1.32941        -7.14689        -0.25692
   C       -1.67558        -8.49835        -0.01908
   S       -2.28579        -9.47259        -1.32301
   C       -2.45981       -10.86106        -0.30336
   C       -2.05723       -10.56813         0.99535
   C       -1.61919        -9.23561         1.16437
   O       -1.20529        -8.68167         2.32903
   C       -1.71127        -9.26352         3.52332
   C       -0.97515       -10.53950         3.94446
   C       -0.83118       -11.48077         2.75197
   S       -0.51633       -13.18736         3.30128
   C        0.00437       -13.89145         1.71152
   O       -2.00508       -11.52853         1.95558
   C       -2.88121       -12.11270        -0.82165
   C       -3.31916       -13.14131        -0.06217
   C       -3.65311       -14.42977        -0.60367
   C       -4.77905       -15.16858        -0.18432
   C       -5.71432       -14.67916         0.84452
   O       -5.68448       -13.64960         1.44648
   S       -7.01429       -15.90448         1.08093
   C       -6.35275       -16.98810        -0.16290
   O       -6.87743       -18.02658        -0.45686
   C       -5.12318       -16.39978        -0.73828
   C       -4.35539       -17.02990        -1.73819
   C       -3.22329       -16.30731        -2.13763
   C       -2.88730       -15.06923        -1.59281
   C       -1.57683       -14.68051        -2.16462
   O       -0.84044       -13.78542        -1.88388
   O       -1.25966       -15.61654        -3.11819
   C       -2.20547       -16.60874        -3.17901
   O       -2.14630       -17.49199        -3.97552
   C       -4.72137       -18.33781        -2.23886
   C       -3.85421       -19.33084        -2.48640
   C       -4.25749       -20.64238        -2.91123
   C       -5.29747       -21.37988        -2.46906
   C       -5.73944       -22.57451        -3.25466
   O       -5.13070       -23.12080        -4.13965
   C       -7.08939       -22.88564        -2.74334
   C       -7.38217       -22.05395        -1.64565
   C       -6.22191       -21.21678        -1.35292
   C       -5.98180       -20.60739        -0.15653
   C       -4.79308       -19.93237         0.19073
   N       -3.86209       -19.37210         0.55970
   C       -6.89032       -20.62355         0.92764
   N       -7.58480       -20.61918         1.83939
   C       -8.62112       -22.13419        -1.03109
   C       -9.54155       -23.05860        -1.50983
   C       -9.23437       -23.89802        -2.58561
   C       -7.99978       -23.81026        -3.21474
  Br      -10.49892       -25.15722        -3.20338
  Br      -11.23514       -23.16547        -0.68153
   H        2.16397         3.42467        -2.35118
   H        4.81397         0.21253         0.37279
   H       -0.70679        -1.44043        -2.20471
   H        0.96061        -2.85014         4.95437
   H        1.15522        -1.20246         4.28451
   H        3.23276        -3.44929         4.14036
   H        3.32397        -2.02758         5.18791
   H        3.41841        -1.83863         3.43186
   H       -0.56500        -6.64705         1.65902
   H       -1.52435        -6.78242        -1.25847
   H       -2.78057        -9.47341         3.40186
   H       -1.58412        -8.49129         4.28453
   H       -1.54924       -11.02556         4.73402
   H        0.01918       -10.30701         4.32507
   H        0.01815       -11.17855         2.12384
   H        0.08942       -14.96252         1.86018
   H        0.96790       -13.47788         1.42675
   H       -0.74687       -13.67536         0.95636
   H       -2.86012       -12.20043        -1.89929
   H       -3.49641       -12.99301         0.99273
   H       -5.78244       -18.52437        -2.33717
   H       -2.78877       -19.16785        -2.41289
   H       -3.67054       -21.08510        -3.71084
   H       -8.89161       -21.49262        -0.20793
   H       -7.75624       -24.44689        -4.05117
*
