# ORCA input file
# SCF done       -202.655067278287          0.000936403244
! CAM-B3LYP def2-SVP def2/J RIJCOSX Grid4 TightSCF
%maxcore 5000
%tddft
    Mode sTDDFT
    Ethresh 5.0
    maxcore 5000
end

%pal
  nprocs 6
  end
* xyz 0 1
   C       -0.57040        -2.18532        -2.06350
   O        0.21791        -3.04943        -1.78336
   C       -0.42429        -1.18998        -3.15238
   C       -1.49701        -0.28286        -3.12857
   C       -1.54375         0.74669        -4.05663
   C       -0.52232         0.84654        -4.99320
   C        0.53823        -0.06385        -5.01081
   C        0.59302        -1.09189        -4.07918
  Br        1.90906         0.09452        -6.29935
  Br       -0.58580         2.24866        -6.25813
   C       -2.40625        -0.64965        -2.04710
   C       -3.60227        -0.04243        -1.77918
   C       -4.10591         1.06380        -2.50012
   N       -4.56463         1.96632        -3.03910
   C       -4.51816        -0.42809        -0.77477
   N       -5.32078        -0.67316         0.00785
   C       -1.83843        -1.80651        -1.36665
   C       -2.31830        -2.35975        -0.22461
   C       -1.86694        -3.54624         0.41861
   O       -2.31460        -3.75159         1.70250
   C       -1.79530        -4.93810         2.06315
   C       -1.04630        -5.43204         0.94916
   N       -1.13575        -4.51303        -0.04674
   C       -0.37682        -6.64932         0.98859
   C       -0.48834        -7.32746         2.18688
   C       -1.23963        -6.80924         3.28678
   C       -1.91651        -5.60757         3.26628
   O       -1.13952        -7.69745         4.29664
   C       -0.34999        -8.70161         3.80253
   N        0.04762        -8.52544         2.58140
   C       -0.04070        -9.79040         4.66635
   S       -0.61995        -9.73871         6.29689
   C        0.18707       -11.23158         6.63840
   C        0.84236       -11.74301         5.54334
   C        0.70209       -10.92242         4.39923
   C        1.35041       -11.18579         3.08147
   C        2.73642       -10.53577         3.04324
   C        1.50262       -13.08565         5.54473
   C        0.50373       -14.16545         5.12077
   C        0.17387       -11.74535         7.99433
   C       -0.98636       -12.17653         8.65670
   C       -2.27766       -12.32146         7.95130
   O       -2.51487       -12.09901         6.80385
   S       -3.49128       -12.98178         9.09366
   C       -2.31485       -13.09892        10.44150
   O       -2.60086       -13.57965        11.49614
   C       -1.00200       -12.57412         9.99517
   C        0.15889       -12.56142        10.78990
   C        1.32652       -12.21227        10.09661
   C        1.33737       -11.81599         8.76600
   C        2.73103       -11.43557         8.42577
   O        3.19468       -11.02182         7.41314
   O        3.48787       -11.64756         9.56121
   C        2.71979       -12.10027        10.59319
   O        3.16419       -12.34279        11.67558
   C        0.25759       -12.80896        12.21189
   C       -0.61034       -12.37927        13.13970
   C       -0.38840       -12.54037        14.54993
   C        0.76100       -12.38140        15.23863
   C        0.84794       -12.89953        16.64186
   O       -0.07182       -13.25474        17.33425
   C        2.29128       -12.92575        16.94834
   C        3.00867       -12.33450        15.89099
   C        2.07073       -11.84530        14.88425
   C        2.36126       -10.88954        13.95526
   C        1.44144       -10.30514        13.06113
   N        0.76710        -9.77865        12.29601
   C        3.64165       -10.30444        13.80858
   N        4.64851        -9.77566        13.66753
   C        4.39266       -12.29140        15.93588
   C        5.03811       -12.81967        17.04732
   C        4.31695       -13.38420        18.10494
   C        2.93064       -13.44533        18.05628
  Br        5.22043       -14.07860        19.61024
  Br        6.92413       -12.76928        17.11084
   H       -2.34151         1.47128        -4.07240
   H        1.40728        -1.79984        -4.07706
   H       -3.13394        -1.88121         0.30229
   H        0.19010        -7.02107         0.15437
   H       -2.47896        -5.22997         4.10218
   H        0.73966       -10.75401         2.28923
   H        1.44142       -12.25991         2.92058
   H        2.63475        -9.45570         3.09336
   H        3.24231       -10.79357         2.11693
   H        3.34348       -10.86804         3.88225
   H        1.87732       -13.31658         6.54312
   H        2.35185       -13.07620         4.86245
   H       -0.34181       -14.18897         5.80520
   H        0.98093       -15.14220         5.12240
   H        0.12269       -13.96546         4.12279
   H        1.18118       -13.27641        12.52895
   H       -1.54721       -11.92061        12.85758
   H       -1.24621       -12.86040        15.13483
   H        4.97658       -11.87702        15.12992
   H        2.36577       -13.88715        18.86245
*
