# ORCA input file
# SCF done       -200.571343406518          0.000396471036
! CAM-B3LYP def2-SVP def2/J RIJCOSX Grid4 TightSCF
%maxcore 5000
%tddft
    Mode sTDDFT
    Ethresh 5.0
    maxcore 5000
end

%pal
  nprocs 6
  end
* xyz 0 1
   C        3.80320       -10.81428         3.09660
   O        2.73066       -10.51588         2.61605
   C        5.10544       -10.20969         2.75978
   C        6.11453       -10.78760         3.55025
   C        7.42645       -10.36882         3.39336
   C        7.70421        -9.38171         2.45471
   C        6.69190        -8.81193         1.67685
   C        5.37617        -9.22848         1.82807
  Br        7.10001        -7.47173         0.41074
  Br        9.49334        -8.81451         2.23976
   C        5.51336       -11.78198         4.43607
   C        6.17754       -12.48075         5.40448
   C        7.56163       -12.34876         5.66021
   N        8.67866       -12.28501         5.91227
   C        5.60211       -13.40520         6.30608
   N        5.22663       -14.15851         7.08555
   C        4.09089       -11.84339         4.11950
   C        3.20114       -12.74074         4.62797
   C        1.81697       -12.88262         4.37313
   S        0.76753       -11.87465         3.38713
   C       -0.51133       -12.97048         3.85390
   N       -0.09293       -13.93601         4.64746
   N        1.16235       -13.87985         4.92943
   C       -1.86062       -12.86447         3.42376
   C       -2.30792       -11.86346         2.63283
   C       -3.63769       -11.72237         2.15421
   O       -3.90133       -10.62422         1.38210
   C       -5.18157       -10.71997         1.02655
   C       -6.18400       -10.05632         0.30289
   C       -6.02728        -8.79880        -0.47768
   O       -5.04073        -8.55900        -1.12924
   N       -7.08624        -7.95397        -0.39618
   C       -7.31053       -10.88056         0.43705
   O       -7.04790       -11.97403         1.21814
   C       -5.76229       -11.87670         1.57625
   C       -4.76606       -12.52663         2.30658
   C       -8.57888       -10.75359        -0.18721
   C       -9.61682       -11.58520         0.05975
   C      -10.89024       -11.51290        -0.59555
   C      -12.09419       -11.85994         0.06136
   C      -12.14417       -12.31444         1.46438
   O      -11.24611       -12.44521         2.23976
   S      -13.85330       -12.66434         1.91182
   C      -14.47222       -12.15752         0.32596
   O      -15.64200       -12.15805         0.05982
   C      -13.34447       -11.76271        -0.54660
   C      -13.51616       -11.29961        -1.86495
   C      -12.31739       -11.04068        -2.54315
   C      -11.06488       -11.14470        -1.94481
   C      -10.05446       -10.95157        -3.01756
   O       -8.86493       -10.99435        -2.98834
   O      -10.74292       -10.73301        -4.18727
   C      -12.09657       -10.76777        -3.98843
   O      -12.87628       -10.62572        -4.87742
   C      -14.83296       -11.10059        -2.42700
   C      -15.17255       -10.05166        -3.19267
   C      -16.50456        -9.82074        -3.67364
   C      -17.67480       -10.00597        -3.02626
   C      -18.95053       -10.00287        -3.80916
   O      -19.09881        -9.62141        -4.94253
   C      -19.94984       -10.61149        -2.90887
   C      -19.37422       -10.82835        -1.64240
   C      -18.00650       -10.31524        -1.64031
   C      -17.30199        -9.98474        -0.51967
   C      -16.04875        -9.33861        -0.50051
   N      -15.03736        -8.80792        -0.38701
   C      -17.77299       -10.20185         0.79647
   N      -18.10963       -10.34036         1.88333
   C      -20.11670       -11.43696        -0.64362
   C      -21.42923       -11.80108        -0.91917
   C      -22.00100       -11.56121        -2.17298
   C      -21.25580       -10.96593        -3.18203
  Br      -23.79240       -12.05180        -2.51322
  Br      -22.44258       -12.63819         0.43651
   H        8.23580       -10.78423         3.97118
   H        4.58422        -8.79898         1.23424
   H        3.55651       -13.49243         5.32251
   H       -2.51839       -13.64621         3.77279
   H       -1.62743       -11.08677         2.30805
   H       -7.82486        -8.08257         0.27161
   H       -7.00837        -7.06474        -0.86321
   H       -4.82998       -13.43908         2.86023
   H       -8.66817        -9.93593        -0.88488
   H       -9.51294       -12.32266         0.84260
   H      -15.59120       -11.81246        -2.13090
   H      -14.42553        -9.34060        -3.51542
   H      -16.58625        -9.47969        -4.70177
   H      -19.70124       -11.64632         0.32895
   H      -21.68427       -10.78404        -4.15545
*
