# ORCA input file
# SCF done       -173.899944550210          0.000905507580
! CAM-B3LYP def2-SVP def2/J RIJCOSX Grid4 TightSCF
%maxcore 5000
%tddft
    Mode sTDDFT
    Ethresh 5.0
    maxcore 5000
end

%pal
  nprocs 6
  end
* xyz 0 1
   C        3.30409         3.25938        -5.60383
   C        2.84186         4.32707        -6.30917
   S        3.39393         4.28178        -7.94352
   C        4.26564         2.78971        -7.67674
  Cl        5.14429         2.04513        -8.91857
   C        4.12112         2.37921        -6.38499
   C        4.56884         1.25083        -5.56304
   O        5.20089         0.28127        -5.91299
   C        3.98855         1.51402        -4.20889
   C        3.21254         2.74413        -4.25243
   C        2.55061         3.36124        -3.22451
   C        1.84485         4.56626        -3.42762
   N        1.26343         5.54349        -3.57923
   C        2.50212         2.91174        -1.88963
   N        2.43886         2.60838        -0.78445
   C        4.06558         0.64769        -3.16053
   C        4.91618        -0.48636        -3.05726
   C        4.62642        -1.62313        -2.33427
   C        5.68683        -2.56499        -2.50334
   C        6.70875        -1.88689        -3.31462
   C        6.24540        -0.65090        -3.63684
   C        7.99631        -2.35974        -3.60340
   N        9.07477        -2.69262        -3.81442
   C        5.74940        -3.85455        -2.02543
   C        6.73857        -4.82924        -2.32040
   C        6.47885        -5.98016        -1.59904
   C        5.27105        -5.74686        -0.81719
   C        4.81290        -4.49634        -1.08528
   C        3.65801        -3.93245        -0.53082
   N        2.70171        -3.50367        -0.06108
   C        7.28241        -7.14570        -1.68888
   N        7.36064        -8.19291        -0.79968
   C        6.72218        -8.31882         0.49052
   C        7.20587        -7.26398         1.48006
   C        8.30233        -9.15231        -1.20761
   O        8.56199       -10.15506        -0.56639
   C        8.80574        -8.65878        -2.46746
   C        8.17068        -7.42740        -2.73238
   C        8.62262        -6.96129        -4.03085
   O        8.33375        -5.99832        -4.70190
   N        9.53980        -7.95081        -4.44996
   C       10.26941        -7.80823        -5.68739
   C       11.67735        -7.26737        -5.45350
   C        9.66502        -8.95834        -3.53343
   C       10.51937       -10.07456        -3.68596
   C       10.60532       -11.04600        -2.73805
   C       11.44498       -12.17556        -2.81760
   S       12.51977       -12.47360        -4.17167
   C       11.57240       -13.19154        -1.87760
   C       10.93245       -13.43215        -0.60427
   C       11.34917       -14.53712         0.01191
   S       12.62719       -15.40600        -0.91493
   N       12.05021       -16.76551        -1.25145
   O       13.92957       -15.24329        -0.31093
   C       12.50867       -14.17157        -2.24401
   C       13.12503       -13.94705        -3.44049
   C       14.08390       -14.80932        -4.05487
   C       14.88644       -14.72699        -5.18405
   C       15.07595       -13.64584        -6.17694
   O       15.17685       -13.85504        -7.35039
   O       15.14971       -12.39593        -5.68080
   C       15.51625       -15.99904        -5.22052
   N       15.14246       -16.73293        -4.21568
   O       14.25529       -16.02072        -3.49350
   H        2.21470         5.13509        -5.98835
   H        3.39867         0.79658        -2.31914
   H        3.71680        -1.81162        -1.79690
   H        6.78547         0.10426        -4.17317
   H        7.54923        -4.68683        -3.00632
   H        4.78677        -6.45264        -0.17044
   H        6.99446        -9.31517         0.85189
   H        5.63608        -8.28546         0.37429
   H        8.28282        -7.34011         1.61006
   H        6.72817        -7.42104         2.44315
   H        6.96938        -6.25978         1.13508
   H        9.70095        -7.09642        -6.29219
   H       10.29961        -8.76998        -6.20625
   H       11.62449        -6.28913        -4.98229
   H       12.19260        -7.16691        -6.40426
   H       12.25172        -7.93331        -4.81305
   H       11.12056       -10.14746        -4.58192
   H        9.99835       -10.97250        -1.84454
   H       10.18314       -12.75594        -0.22238
   H       11.01778       -14.92782         0.95312
   H       12.70653       -17.45744        -1.56625
   H       15.13978       -12.35821        -4.71575
   H       16.22145       -16.35820        -5.94130
*
