# ORCA input file
# SCF done       -212.122672655425          0.000423315028
! CAM-B3LYP def2-SVP def2/J RIJCOSX Grid4 TightSCF
%maxcore 5000
%tddft
    Mode sTDDFT
    Ethresh 5.0
    maxcore 5000
end

%pal
  nprocs 6
  end
* xyz 0 1
   C        1.35192         3.89605         4.16557
   C        0.16209         4.40209         4.61496
   C        0.02569         5.11833         5.82196
   N       -0.12868         5.71088         6.79233
   C       -1.06912         4.17805         3.96359
   N       -2.09104         3.98243         3.47902
   C        2.59960         3.85969         4.91614
   C        3.41587         2.81663         4.38620
   C        4.63751         2.52377         4.92148
   C        5.10851         3.27974         6.01864
   C        4.30410         4.33505         6.53970
   C        3.03974         4.61173         5.97160
   C        4.79132         5.08689         7.62810
   C        6.01229         4.80944         8.17975
   C        6.80260         3.76925         7.66797
   C        6.36032         3.02063         6.61118
   C        2.73469         2.19362         3.23674
   O        3.08905         1.24747         2.57691
   C        1.52652         3.04584         3.00237
   C        0.88991         3.01711         1.80715
   C        0.03462         4.00690         1.25161
   S        0.13346         5.71148         1.65251
   C       -0.91696         3.83741         0.27219
   C       -1.48007         2.70177        -0.47986
   O       -1.19210         1.53375        -0.45887
   N       -2.46604         3.27145        -1.27928
   C       -3.26158         2.50107        -2.21179
   C       -2.55618         2.36253        -3.55630
   C       -2.58937         4.64485        -1.13166
   O       -3.37782         5.33071        -1.73934
   C       -1.58594         5.01472        -0.11809
   C       -1.13503         6.15205         0.52919
   C       -1.50240         7.51494         0.43455
   C       -2.48745         7.98152        -0.37781
   C       -2.81486         9.35841        -0.43849
   N       -3.81608         9.87094        -1.22119
   C       -4.73633         9.11907        -2.04110
   C       -5.83730         8.47091        -1.20630
   C       -3.91420        11.27659        -1.10786
   O       -4.70626        11.94395        -1.73072
   C       -2.87692        11.62162        -0.15352
   C       -2.21401        10.43187         0.22530
   C       -1.16347        10.79159         1.14879
   O       -0.35295        10.12552         1.76485
   N       -1.24173        12.19231         1.24740
   C       -0.37839        12.88337         2.17586
   C        0.98462        13.19224         1.55933
   C       -2.26345        12.70305         0.47598
   C       -2.66558        14.05726         0.33489
   C       -1.89795        15.15908         0.53344
   C       -2.34582        16.49849         0.40599
   S       -1.14200        17.76613         0.47518
   C       -2.33080        19.03749         0.34383
   C       -3.58429        18.47748         0.21288
   C       -3.60556        17.06612         0.25646
   C       -4.98964        16.58205         0.16994
   O       -5.38777        15.44477         0.18777
   C       -5.86389        17.82323         0.07036
   C       -4.92775        19.00923        -0.07407
   O       -5.22828        20.12112        -0.42218
   C       -1.94082        20.40354         0.36447
   C       -2.68014        21.40688         0.90623
   C       -2.39453        22.82829         0.82167
   C       -1.52699        23.42589        -0.05382
   C       -1.30807        24.81811        -0.12214
   N       -1.07801        25.93856        -0.21836
   C       -0.74927        22.74282        -1.01269
   N       -0.09291        22.25418        -1.81824
   C       -3.25781        23.51373         1.77298
   C       -4.09566        22.54977         2.40386
   C       -3.79306        21.20914         1.88355
   O       -4.28002        20.16324         2.25382
   C       -5.01692        22.90264         3.34832
   C       -5.14725        24.26180         3.70942
   C       -4.30867        25.23188         3.08711
   C       -3.36234        24.83655         2.11432
   C       -4.44254        26.58460         3.46089
   C       -5.36077        26.96314         4.40220
   C       -6.18677        26.00761         5.01309
   C       -6.08288        24.68592         4.67358
   H        5.23872         1.72516         4.51307
   H        2.45272         5.42209         6.37526
   H        4.17754         5.88432         8.02037
   H        6.37601         5.38984         9.01433
   H        7.76372         3.56443         8.11514
   H        6.96475         2.21879         6.21323
   H        1.10013         2.16844         1.16283
   H       -4.21584         3.01914        -2.33119
   H       -3.42528         1.51695        -1.76658
   H       -2.38426         3.34262        -3.99559
   H       -3.17089         1.77819        -4.23478
   H       -1.60110         1.85850        -3.42819
   H       -0.95080         8.20185         1.06388
   H       -3.04299         7.29343        -0.99832
   H       -4.18969         8.36088        -2.60726
   H       -5.17590         9.83872        -2.73731
   H       -5.41909         7.75813        -0.49971
   H       -6.52796         7.94593        -1.85969
   H       -6.38612         9.23117        -0.65568
   H       -0.23109        12.20925         3.02587
   H       -0.88016        13.78716         2.52617
   H        1.49482        12.26159         1.32502
   H        1.59068        13.75388         2.26485
   H        0.88637        13.76790         0.64129
   H       -3.68556        14.17719        -0.00983
   H       -0.84538        15.06531         0.75706
   H       -6.44115        17.93525         0.99200
   H       -6.58107        17.75599        -0.74920
   H       -0.96882        20.62289        -0.05995
   H       -5.64102        22.15283         3.81135
   H       -2.73769        25.59303         1.66630
   H       -3.80574        27.31685         2.98669
   H       -5.45616        28.00175         4.68118
   H       -6.90539        26.32406         5.75415
   H       -6.71603        23.94574         5.14047
*
