# ORCA input file
# SCF done       -179.074378812506          0.000928425016
! CAM-B3LYP def2-SVP def2/J RIJCOSX Grid4 TightSCF
%maxcore 5000
%tddft
    Mode sTDDFT
    Ethresh 5.0
    maxcore 5000
end

%pal
  nprocs 6
  end
* xyz 0 1
   C        1.70788         2.56425        -4.00946
   C        2.77970         1.88702        -3.48910
   C        3.55248         0.95469        -4.21423
   N        4.22213         0.18678        -4.74298
   C        3.27613         2.00845        -2.17444
   N        3.74099         2.04879        -1.12475
   C        1.20823         2.42826        -5.37410
   C        0.08885         3.29405        -5.53791
   C       -0.59466         3.38302        -6.71623
   C       -0.18028         2.59358        -7.81176
   C        0.93955         1.72571        -7.65945
   C        1.62595         1.65495        -6.42496
   C        1.34600         0.94383        -8.75968
   C        0.67958         1.01435        -9.95299
   C       -0.42336         1.86838       -10.10111
   C       -0.84437         2.64145        -9.05301
   C       -0.15398         4.01061        -4.28020
   O       -1.02920         4.83213        -4.07027
   C        0.86623         3.53682        -3.33073
   C        0.98790         3.94210        -2.03087
   C        0.22433         4.87098        -1.29540
   S       -1.13413         5.81584        -1.85440
   C       -1.32033         6.55997        -0.30729
   C       -0.36417         6.09179         0.60689
   C        0.49437         5.14884         0.03920
   C       -0.24694         6.50136         1.94493
   N       -0.13847         6.82356         3.04173
   C       -2.36897         7.50928        -0.14370
   C       -2.66438         8.12887         1.01561
   N       -3.67250         9.04945         1.19753
   C       -3.98292         9.59948         2.42780
   C       -3.27820         9.25715         3.67964
   C       -5.02492        10.46957         2.25400
   C       -5.39549        10.47988         0.86515
   C       -4.53220         9.56616         0.16352
   O       -4.47479         9.25182        -1.00006
   C       -6.44922        11.33033         0.67955
   C       -7.13956        11.60677        -0.59696
   N       -6.76723        11.87461         1.91369
   C       -5.91385        11.35946         2.94053
   O       -6.03678        11.68108         4.10297
   C       -7.75989        12.77026         2.25435
   S       -8.03656        13.10591         3.93829
   C       -9.36096        14.16941         3.54638
   C       -9.52504        14.26854         2.16894
   C       -8.61284        13.47412         1.44425
   C      -10.42538        15.11118         1.49334
   N      -11.10301        15.79370         0.86786
   C      -10.09606        14.77820         4.59391
   C      -11.31105        15.37079         4.45450
   C      -11.98507        15.94963         5.55514
   C      -13.26546        16.42294         5.51656
   C      -13.98803        17.08136         6.58958
   C      -13.52466        17.35349         7.85157
   C      -14.28155        18.00087         8.85065
   N      -14.83844        18.51903         9.71080
   C      -12.24353        17.03368         8.34657
   N      -11.22529        16.81059         8.82946
   C      -15.31690        17.41962         6.08974
   C      -15.42629        16.97000         4.74340
   C      -14.16918        16.31724         4.33864
   O      -13.94653        15.77664         3.27679
   C      -16.56479        17.14476         4.01160
   C      -17.67153        17.79243         4.60416
   C      -17.57192        18.24650         5.95089
   C      -16.37867        18.05068         6.68344
   C      -18.68327        18.88926         6.53380
   C      -19.83753        19.07435         5.82280
   C      -19.93416        18.62653         4.49674
   C      -18.87395        17.99969         3.90029
   H       -1.44018         4.04815        -6.81066
   H        2.46813         0.98650        -6.34498
   H        2.19554         0.28744        -8.64123
   H        0.99917         0.41177       -10.78988
   H       -0.93771         1.91099       -11.04946
   H       -1.69290         3.30116        -9.16066
   H        1.78468         3.49784        -1.44652
   H        1.29499         4.67563         0.58159
   H       -2.94640         7.71681        -1.03195
   H       -2.09659         7.91898         1.90934
   H       -2.21669         9.49714         3.61140
   H       -3.36228         8.19177         3.89599
   H       -3.71799         9.82161         4.49742
   H       -6.71939        10.95340        -1.35798
   H       -6.98891        12.64085        -0.90710
   H       -8.20946        11.41885        -0.51365
   H       -8.61047        13.45988         0.37241
   H       -9.65314        14.70450         5.58041
   H      -11.80154        15.39165         3.49283
   H      -11.42746        16.01528         6.48098
   H      -16.61839        16.79257         2.99214
   H      -16.33786        18.40626         7.70063
   H      -18.60432        19.23236         7.55501
   H      -20.68333        19.56716         6.27848
   H      -20.85280        18.78069         3.95051
   H      -18.94171        17.65256         2.87959
*
