# ORCA input file
# SCF done       -156.123527918922          0.000787490734
! CAM-B3LYP def2-SVP def2/J RIJCOSX Grid4 TightSCF
%maxcore 5000
%tddft
    Mode sTDDFT
    Ethresh 5.0
    maxcore 5000
end

%pal
  nprocs 6
  end
* xyz 0 1
   C        0.72264        -0.91613         2.58750
   N        1.14266         0.22760         3.19205
   C        2.04316         0.30737         4.31449
   C        3.48463         0.02414         3.89920
   C        0.63815         1.37256         2.53634
   O        0.87779         2.50932         2.90026
   C       -0.15247         0.83666         1.45692
   C       -0.07386        -0.59246         1.52609
   C       -0.87199        -1.13550         0.44539
   O       -1.11687        -2.26950         0.09914
   N       -1.38297         0.00496        -0.20653
   C       -2.21177        -0.11737        -1.38086
   C       -1.42186         0.12425        -2.66516
   C       -0.95924         1.17687         0.38103
   C       -1.32846         2.46528        -0.09041
   C       -0.92546         3.61016         0.51089
   C       -1.29024         4.88624         0.00506
   S       -0.87219         6.38506         0.83327
   C       -1.68742         7.19427        -0.49949
   N       -2.16389         6.35064        -1.37940
   N       -1.94898         5.09867        -1.10118
   C       -1.80217         8.60410        -0.58617
   C       -2.37021         9.20685        -1.66025
   C       -2.53662        10.59606        -1.82415
   S       -2.09773        11.78626        -0.60780
   C       -2.62104        13.15256        -1.56153
   C       -3.10715        12.68978        -2.78090
   C       -3.05978        11.27626        -2.91255
   N       -3.57768        11.01332        -4.15038
   C       -3.90177        12.23084        -4.68890
   N       -3.64126        13.23911        -3.91646
   C       -2.53980        14.47250        -1.07090
   C       -2.92556        15.54422        -1.80929
   C       -2.87983        16.86876        -1.30823
   S       -3.34230        18.25871        -2.28741
   C       -2.98251        19.21998        -0.85706
   N       -2.57766        18.48564         0.14552
   N       -2.51969        17.21127        -0.09864
   C       -3.13847        20.63060        -0.82821
   C       -2.93768        21.34294         0.30779
   C       -3.09949        22.75018         0.37648
   N       -2.91965        23.47936         1.53122
   C       -2.48836        22.96947         2.80976
   C       -0.98543        22.70287         2.83822
   C       -3.15981        24.84964         1.33540
   O       -3.06794        25.67736         2.22102
   C       -3.51859        24.95339        -0.06124
   C       -3.47133        23.64466        -0.62046
   C       -3.82800        23.74654        -2.01402
   O       -3.92384        22.91840        -2.90027
   N       -4.06476        25.12017        -2.21235
   C       -4.50079        25.61768        -3.49388
   C       -6.01103        25.83825        -3.53388
   C       -3.89031        25.84431        -1.05660
   C       -4.06650        27.26645        -0.98134
   C       -3.91616        27.95662         0.15113
   H        1.01532        -1.87957         2.96216
   H        1.72172        -0.40061         5.08441
   H        1.96027         1.32527         4.70512
   H        3.57607        -0.97792         3.48553
   H        4.14043         0.10734         4.76125
   H        3.80462         0.74127         3.14719
   H       -3.05558         0.57440        -1.30729
   H       -2.59301        -1.14268        -1.37338
   H       -1.00214         1.12759        -2.68256
   H       -2.07433         0.00289        -3.52548
   H       -0.60887        -0.59392        -2.74093
   H       -1.95652         2.53908        -0.96585
   H       -0.30797         3.58516         1.39781
   H       -1.41587         9.19019         0.23461
   H       -2.72603         8.57617        -2.46435
   H       -3.69722        10.11189        -4.57987
   H       -4.33304        12.32387        -5.66662
   H       -2.16230        14.62210        -0.06974
   H       -3.29147        15.39850        -2.81489
   H       -3.43255        21.11854        -1.74678
   H       -2.65246        20.80829         1.20177
   H       -3.04789        22.06107         3.04951
   H       -2.73825        23.74280         3.54179
   H       -0.70616        21.96845         2.08629
   H       -0.69734        22.32867         3.81661
   H       -0.44165        23.62403         2.64330
   H       -4.22427        24.85157        -4.22397
   H       -3.96525        26.54055        -3.73280
   H       -6.52554        24.90195        -3.33222
   H       -6.30676        26.19280        -4.51770
   H       -6.31841        26.56929        -2.78901
   H       -4.33075        27.77493        -1.89845
   H       -3.65455        27.47133         1.07650
   H       -4.05269        29.02404         0.17506
*
