# ORCA input file
# SCF done       -225.124543922124          0.000411991569
! CAM-B3LYP def2-SVP def2/J RIJCOSX Grid4 TightSCF
%maxcore 5000
%tddft
    Mode sTDDFT
    Ethresh 5.0
    maxcore 5000
end

%pal
  nprocs 6
  end
* xyz 0 1
   C       -9.94807         2.76614        11.81743
   C      -10.18147         3.50845        10.66715
   C       -9.72079         3.02606         9.46065
   C       -9.02703         1.80806         9.40702
   C       -8.78641         1.07276        10.55742
   C       -9.25489         1.56529        11.76334
   C       -8.69336         1.53041         8.02617
   C       -9.16613         2.58844         7.22683
   C       -9.81129         3.65361         8.08548
   C       -8.97529         4.95453         8.12733
   C       -8.78181         5.66780         6.79567
   C      -11.26426         3.92602         7.66811
   C      -12.13468         2.67702         7.74982
   C       -9.02759         2.53454         5.86187
   C       -8.40125         1.42540         5.26428
   C       -7.92354         0.39017         6.08614
   C       -8.06190         0.43121         7.45751
   C       -8.23713         1.41300         3.83590
   C       -7.84032         0.34751         3.09956
   C       -7.58332         0.41149         1.70534
   N       -8.03132         1.39723         0.93508
   C       -7.71346         1.05631        -0.32391
   C       -6.99173        -0.23031        -0.36557
   C       -6.67847        -0.60003        -1.75283
   O       -6.08492        -1.57637        -2.16003
   C       -7.28458         0.49983        -2.52298
   C       -7.89438         1.49005        -1.61648
   N       -8.48255         2.48623        -2.32425
   C       -8.28129         2.17577        -3.58414
   C       -7.54058         0.95316        -3.77989
   C       -6.87686        -0.64336         0.93072
   C       -6.26685        -1.81319         1.48939
   C       -5.72119        -1.81290         2.72013
   C       -5.28391        -2.93939         3.50534
   C       -5.18136        -2.75430         4.86634
   C       -4.90650        -3.83977         5.71495
   C       -4.80299        -3.91022         7.09902
   C       -5.01147        -2.77899         8.05028
   C       -6.09459        -3.11718         9.08929
   N       -6.67278        -1.89116         9.61433
   C       -3.68641        -2.35632         8.71211
   N       -3.86196        -1.12380         9.46589
   C       -4.43075        -5.26593         7.41848
   C       -4.03928        -5.85308         8.56952
   C       -3.44104        -7.20597         8.54094
   C       -3.78214        -8.02356         7.33181
   C       -4.18865        -7.42811         6.18463
   C       -4.41445        -6.03915         6.15914
   C       -4.68506        -5.15104         5.13017
   C       -4.74072        -5.30387         3.72682
   C       -5.03907        -4.23230         2.94543
   C       -1.96487        -7.14116         8.18614
   C       -1.43388        -6.17165         7.41753
   C       -0.15079        -6.22268         6.81657
   N        0.78292        -7.11410         7.12209
   C        1.77406        -6.91907         6.23279
   C        1.44163        -5.84529         5.27973
   C        2.51702        -5.68760         4.29018
   O        2.56287        -4.93996         3.33391
   C        3.51012        -6.68289         4.73010
   C        3.01560        -7.41657         5.90886
   N        3.92244        -8.33737         6.31582
   C        4.92995        -8.21554         5.48193
   C        4.74055        -7.20199         4.47082
   C        0.21946        -5.36014         5.66666
   C       -0.60251        -4.32660         5.12528
   C       -0.39686        -3.76127         3.91929
   C       -1.21766        -2.72554         3.33518
   C       -1.22744        -2.59153         1.93854
   C       -1.98248        -1.60875         1.34579
   C       -2.75379        -0.74024         2.13813
   C       -2.73694        -0.84920         3.52188
   C       -1.98032        -1.84209         4.10869
   C       -3.46037         0.17321         1.26722
   C       -3.14389        -0.14274        -0.06493
   C       -2.15853        -1.29300        -0.12513
   C       -2.71679        -2.54993        -0.82190
   C       -2.96843        -2.43742        -2.31960
   C       -0.85995        -0.74748        -0.76035
   C        0.30069        -1.72765        -0.87139
   C       -3.64263         0.62900        -1.08788
   C       -4.47771         1.71901        -0.80695
   C       -4.79925         2.00409         0.52381
   C       -4.30012         1.23968         1.55839
   C       -4.94851         2.53072        -1.91866
   C       -5.73358         3.60200        -1.84625
   H      -10.30990         3.12988        12.76793
   H      -10.72105         4.44244        10.72562
   H       -8.24560         0.14075        10.50397
   H       -9.08249         1.01044        12.67413
   H       -7.99265         4.70745         8.53853
   H       -9.46211         5.63618         8.82845
   H       -8.20330         5.05756         6.10789
   H       -8.23773         6.59533         6.96156
   H       -9.73431         5.91591         6.33530
   H      -11.27918         4.30210         6.64444
   H      -11.67764         4.70048         8.31758
   H      -11.74928         1.89747         7.09612
   H      -13.15260         2.90914         7.44522
   H      -12.15895         2.28976         8.76611
   H       -9.41791         3.31453         5.22567
   H       -7.43121        -0.45875         5.63703
   H       -7.69038        -0.37284         8.07880
   H       -8.41545         2.34241         3.31070
   H       -7.70409        -0.61676         3.56543
   H       -8.65996         2.81185        -4.36569
   H       -7.27636         0.52714        -4.72788
   H       -6.28058        -2.70040         0.87124
   H       -5.65871        -0.86531         3.23792
   H       -5.34284        -1.77315         5.29014
   H       -5.38409        -1.91819         7.48549
   H       -5.66177        -3.75986         9.87189
   H       -6.89464        -3.68239         8.59836
   H       -5.92080        -1.33026        10.01043
   H       -7.32961        -2.11471        10.35572
   H       -2.91726        -2.27245         7.92439
   H       -3.35612        -3.12768         9.41241
   H       -3.01057        -0.89173         9.96624
   H       -4.06782        -0.35565         8.83421
   H       -4.02004        -5.32752         9.51226
   H       -3.58853        -7.74389         9.47846
   H       -3.58529        -9.08185         7.38243
   H       -4.35078        -8.00789         5.28816
   H       -4.54369        -6.27123         3.28935
   H       -5.07898        -4.33953         1.87266
   H       -1.36319        -7.99168         8.46756
   H       -2.04785        -5.33186         7.12864
   H        5.79728        -8.84463         5.58494
   H        5.44215        -6.94824         3.70070
   H       -1.45557        -4.01891         5.71572
   H        0.42485        -4.11750         3.31162
   H       -0.64756        -3.28759         1.35232
   H       -3.30294        -0.16106         4.13302
   H       -1.95237        -1.92135         5.18553
   H       -3.65974        -2.80344        -0.33094
   H       -2.02060        -3.37015        -0.63487
   H       -3.81160        -1.78465        -2.52046
   H       -3.21855        -3.42078        -2.71259
   H       -2.09213        -2.07521        -2.85033
   H       -0.53999         0.11176        -0.16364
   H       -1.10554        -0.37358        -1.75567
   H        0.66752        -2.01521         0.10943
   H        1.12008        -1.25193        -1.40700
   H        0.01479        -2.62131        -1.41925
   H       -3.38739         0.42023        -2.11599
   H       -5.44217         2.84022         0.74982
   H       -4.54459         1.48704         2.58191
   H       -4.59596         2.20643        -2.89101
   H       -6.12842         3.97835        -0.91923
   H       -6.02045         4.14431        -2.73041
*
