# ORCA input file
# SCF done       -225.744360886485          0.000362248281
! CAM-B3LYP def2-SVP def2/J RIJCOSX Grid4 TightSCF
%maxcore 5000
%tddft
    Mode sTDDFT
    Ethresh 5.0
    maxcore 5000
end

%pal
  nprocs 6
  end
* xyz 0 1
   C        3.20616        -5.18982        13.25380
   C        2.11805        -4.77837        14.18717
   O        1.96124        -3.67377        14.65724
   C        1.27703        -5.97962        14.34316
   C        1.87625        -7.05780        13.69001
   C        3.16148        -6.63242        13.14628
   C        4.22575        -7.45107        12.87629
   C        5.53457        -6.96711        12.66664
   N        6.61940        -6.61128        12.54788
   C        4.16404        -8.85908        12.88558
   N        4.16699       -10.00678        12.86535
   C        1.25730        -8.31377        13.66543
   C        0.05428        -8.46577        14.30411
   C       -0.57048        -7.40132        14.99069
   C        0.04693        -6.11660        15.01550
   C       -0.58223        -5.05700        15.70016
   C       -1.77399        -5.26316        16.33868
   C       -2.38577        -6.52688        16.31927
   C       -1.79932        -7.57217        15.66004
   C        3.94319        -4.24892        12.61156
   C        4.71340        -4.37831        11.42979
   C        5.68326        -3.48455        11.00415
   F        6.03673        -2.42359        11.73071
   C        6.26040        -3.81625         9.77763
   C        5.69181        -4.96965         9.22132
   S        4.46595        -5.63779        10.22924
   C        6.26734        -5.29474         7.99123
   C        7.26987        -4.39131         7.62758
   S        7.51492        -3.12299         8.79136
   C        7.86102        -4.71669         6.40073
   F        8.84151        -3.96763         5.87149
   C        7.33855        -5.84782         5.80326
   S        6.06593        -6.52741         6.80318
   C        7.69875        -6.48385         4.56112
   C        8.78582        -6.06724         3.82752
   C        9.11496        -6.71451         2.61937
   C       10.14000        -6.48996         1.71344
   C       11.21911        -5.46039         1.75270
   C       10.63422        -4.03650         1.67351
   N       11.64091        -3.13417         1.14732
   C       12.11885        -5.64160         2.98902
   N       13.30892        -4.81025         2.88362
   C        9.96932        -7.45592         0.65175
   C       10.67793        -7.66749        -0.47091
   C       10.30999        -8.74603        -1.43579
   C        9.09245        -9.52698        -1.06292
   C        8.39105        -9.29680         0.06160
   C        8.79143        -8.27841         0.96091
   C        8.28424        -7.82280         2.15850
   C        7.17628        -8.23043         2.93947
   C        6.90006        -7.58382         4.09681
   C       11.53698        -9.59823        -1.63579
   C       11.63495       -10.88421        -1.29616
   C       12.82169       -11.66918        -1.46983
   C       12.93789       -13.02588        -1.26241
   F       11.90803       -13.78256        -0.86427
   C       14.22307       -13.53034        -1.51104
   C       15.10996       -12.52519        -1.90837
   S       14.34589       -10.97997        -1.98455
   C       16.39298       -13.02560        -2.14944
   C       16.46326       -14.40789        -1.93900
   S       14.95068       -15.10641        -1.43896
   C       17.74872       -14.90752        -2.16462
   F       18.08321       -16.18935        -2.01983
   C       18.66157       -13.94847        -2.57228
   S       17.90772       -12.36343        -2.62793
   C       20.04451       -14.18157        -2.78399
   C       20.96778       -13.38440        -3.37382
   C       22.41819       -13.58225        -3.07495
   O       22.91530       -14.56876        -2.58190
   C       23.05663       -12.30709        -3.44721
   C       22.11944       -11.47632        -4.06471
   C       20.85569       -12.19307        -4.19022
   C       19.88186       -11.94807        -5.12012
   C       18.84371       -12.86288        -5.39897
   N       18.01933       -13.60912        -5.68285
   C       19.86247       -10.82130        -5.96705
   N       19.79100        -9.91424        -6.66640
   C       22.47132       -10.18748        -4.48447
   C       23.75721        -9.75909        -4.28091
   C       24.73468       -10.57906        -3.67476
   C       24.38681       -11.89195        -3.24100
   C       25.36620       -12.70617        -2.63683
   C       26.64081       -12.23869        -2.47051
   C       26.98899       -10.94633        -2.89493
   C       26.05844       -10.13409        -3.48306
   H        1.71112        -9.14122        13.14435
   H       -0.44100        -9.42596        14.29128
   H       -0.10305        -4.09078        15.70815
   H       -2.25439        -4.45175        16.86468
   H       -3.32657        -6.66725        16.83074
   H       -2.26788        -8.54563        15.64421
   H        3.88052        -3.24183        13.01428
   H        9.39756        -5.24906         4.16290
   H       11.85044        -5.57877         0.86642
   H       10.25482        -3.74452         2.66497
   H        9.78627        -4.03819         0.97927
   H       12.45439        -3.16922         1.75674
   H       11.28948        -2.18282         1.13543
   H       12.35123        -6.71609         3.09291
   H       11.58315        -5.33112         3.88829
   H       13.88852        -5.12427         2.11147
   H       13.85977        -4.87517         3.73277
   H       11.55070        -7.07861        -0.71844
   H       10.11541        -8.25501        -2.40477
   H        8.79027       -10.29022        -1.76393
   H        7.51074        -9.87973         0.29014
   H        6.56176        -9.05279         2.60487
   H        6.05678        -7.88446         4.70161
   H       12.39338        -9.08977        -2.06065
   H       10.79391       -11.41429        -0.87052
   H       20.42761       -15.09336        -2.33391
   H       21.74254        -9.54030        -4.94519
   H       24.04551        -8.76506        -4.59097
   H       25.08729       -13.69674        -2.31395
   H       27.39106       -12.86341        -2.00948
   H       28.00105       -10.59747        -2.75264
   H       26.32445        -9.13976        -3.81141
*
