# ORCA input file
# SCF done       -180.738948351643          0.000919183718
! CAM-B3LYP def2-SVP def2/J RIJCOSX Grid4 TightSCF
%maxcore 5000
%tddft
    Mode sTDDFT
    Ethresh 5.0
    maxcore 5000
end

%pal
  nprocs 6
  end
* xyz 0 1
   C       -6.68759        -1.17861         2.53984
   S       -5.25245        -1.26161         3.43669
   C       -5.63716         0.15885         4.36713
   C       -6.88536         0.66930         3.95338
   C       -7.47604        -0.10041         2.90165
   C       -8.72113         0.27212         2.35851
   C       -9.37550         1.38556         2.83374
   C      -10.65719         1.75464         2.24718
   C      -11.37818         2.83457         2.52560
   C       -8.77657         2.13733         3.88029
   C       -7.57306         1.80058         4.43033
   C       -4.81449         0.68358         5.38551
   N       -5.26478         1.70887         6.11392
   C       -4.30397         1.99144         7.00162
   C       -3.14799         1.10249         6.84681
   C       -2.11385         1.44464         7.83643
   O       -1.02500         0.93026         8.01069
   C       -2.71849         2.56678         8.57008
   C       -4.05256         2.87166         8.03325
   N       -4.61601         3.90573         8.69939
   C       -3.72499         4.25413         9.60277
   C       -2.52002         3.46270         9.57687
   C       -3.45248         0.25408         5.80658
   C       -2.66611        -0.77899         5.22425
   C       -1.43198        -1.10107         5.67535
   C       -0.55641        -2.10869         5.14546
   C        0.71032        -2.21255         5.68684
   C        1.62628        -3.15924         5.19605
   C        2.94364        -3.44192         5.54411
   C        3.79299        -2.79977         6.58658
   C        4.05605        -1.31695         6.25334
   N        5.28879        -0.89843         6.89065
   C        3.18237        -2.96715         7.99053
   N        4.13927        -2.56835         9.01166
   C        3.38732        -4.49824         4.66844
   C        4.58148        -5.10954         4.55020
   C        4.79131        -6.21231         3.57560
   C        3.65055        -6.44714         2.63516
   C        2.45867        -5.83036         2.77194
   C        2.27377        -4.85318         3.77454
   C        1.21106        -4.03517         4.10763
   C       -0.09806        -3.92607         3.58520
   C       -0.94693        -2.99378         4.08648
   C        4.88666        -7.51397         4.33491
   C        5.89851        -8.37914         4.21655
   C        5.94991        -9.66269         4.85661
   N        7.10171       -10.16990         5.25148
   C        6.80464       -11.35023         5.84294
   C        5.36481       -11.61873         5.80222
   C        5.06770       -12.91005         6.42737
   O        3.98854       -13.45321         6.58285
   C        6.40148       -13.39306         6.82992
   C        7.43298       -12.40856         6.45802
   N        8.66583       -12.85098         6.80760
   C        8.46450       -14.02580         7.35579
   C        7.07557       -14.42850         7.39623
   C        4.79618       -10.54954         5.14097
   C        3.46459       -10.34465         4.70882
   C        2.45351       -11.19310         5.04011
   C        1.11584       -11.06314         4.63284
   S        0.53635        -9.72392         3.68106
   C       -1.05735       -10.32974         3.66007
   C       -1.18144       -11.51938         4.34671
   C        0.06229       -11.95040         4.91258
   C        0.12480       -13.14505         5.64261
   C       -1.01129       -13.90585         5.82045
   C       -1.01133       -15.15428         6.56837
   C        0.03772       -15.72809         7.14985
   C       -2.24148       -13.46371         5.25475
   C       -2.33827       -12.31175         4.53891
   H       -6.89157        -1.91660         1.78867
   H       -9.14571        -0.32475         1.56428
   H      -11.02614         1.05598         1.50590
   H      -11.07253         3.57621         3.24305
   H      -12.31648         3.01895         2.03149
   H       -9.29428         3.00449         4.25670
   H       -7.13081         2.37537         5.22713
   H       -3.92905         5.06704        10.27822
   H       -1.67569         3.58601        10.22625
   H       -3.08625        -1.30104         4.37904
   H       -1.03513        -0.54515         6.51462
   H        0.99516        -1.54228         6.48288
   H        4.77260        -3.28820         6.59301
   H        3.17956        -0.72014         6.54910
   H        4.18212        -1.21056         5.16998
   H        5.19927        -1.04352         7.89308
   H        5.46004         0.08636         6.72012
   H        2.84517        -4.01292         8.09989
   H        2.30587        -2.32486         8.09493
   H        4.92787        -3.20838         9.02323
   H        3.70556        -2.59175         9.92860
   H        5.42302        -4.85964         5.18101
   H        5.72589        -6.05506         3.02561
   H        3.81459        -7.19102         1.87076
   H        1.64519        -6.05179         2.09619
   H       -0.40735        -4.58664         2.78811
   H       -1.94595        -2.91305         3.68669
   H        4.04364        -7.71650         4.97939
   H        6.78591        -8.11456         3.65606
   H        9.29461       -14.60032         7.72874
   H        6.70427       -15.35170         7.79622
   H        3.26043        -9.50142         4.06225
   H        2.67871       -12.04671         5.66546
   H       -1.82505        -9.78595         3.14564
   H        1.06749       -13.45993         6.05872
   H       -1.97801       -15.63869         6.63776
   H        1.02770       -15.30745         7.12061
   H       -0.06354       -16.65740         7.68374
   H       -3.12007       -14.07484         5.40538
   H       -3.27691       -11.98930         4.11371
*
