# ORCA input file
# SCF done       -180.149991075369          0.000659314187
! CAM-B3LYP def2-SVP def2/J RIJCOSX Grid4 TightSCF
%maxcore 5000
%tddft
    Mode sTDDFT
    Ethresh 5.0
    maxcore 5000
end

%pal
  nprocs 6
  end
* xyz 0 1
   C        1.91102        -0.26751        -1.53370
   S        1.37826        -0.90273         0.11298
   C        2.29100         0.54329         0.43807
   C        2.59682         0.87084        -0.83521
   C        3.33794         1.96575        -1.43802
   O        3.48774         2.12709        -2.62613
   O        3.84989         2.78320        -0.49567
   C        4.56482         3.93067        -0.96824
   C        3.64638         5.01883        -1.41908
   C        3.50747         5.43780        -2.69797
   C        2.54769         6.53322        -2.72665
   C        2.12269         7.24920        -3.84726
   N        1.76868         7.90147        -4.72590
   C        2.14387         6.78999        -1.44766
   C        2.82093         5.87275        -0.56230
   C        2.69843         5.85305         0.80705
   C        2.08728         6.92767         1.63188
   C        1.90965         6.42467         2.88863
   C        2.43172         5.07886         2.91830
   C        2.95038         4.75667         1.68596
   C        2.40253         4.23853         4.03835
   N        2.37211         3.54541         4.95355
   C        1.87157         8.25042         1.15113
   C        0.99175         9.14419         1.65984
   C        0.69139        10.41911         1.07286
   C        1.11433        10.76960        -0.20027
   C        0.72865        11.99230        -0.75917
   C        1.00108        12.54676        -2.01307
   C        1.84757        11.94418        -3.07626
   C        1.04435        11.68476        -4.36980
   N        0.13003        10.58222        -4.15147
   C        3.09853        12.80483        -3.34209
   N        3.93356        12.79462        -2.15718
   C        0.36126        13.84168        -2.04120
   C        0.32555        14.81874        -2.97226
   C       -0.25400        16.14985        -2.66424
   C       -1.10064        16.19400        -1.43131
   C       -1.08053        15.20401        -0.51536
   C       -0.32627        14.03395        -0.75327
   C       -0.09919        12.90200         0.01179
   C       -0.51248        12.53320         1.30979
   C       -0.13625        11.32640         1.80836
   C        0.85661        17.12622        -2.29921
   C        2.01836        16.73259        -1.76681
   C        3.07610        17.58166        -1.30580
   C        3.29674        18.89948        -1.57809
   C        4.57190        19.27742        -1.01134
   C        5.11369        20.56605        -1.04786
   N        5.56630        21.62191        -1.07146
   C        5.15449        18.17659        -0.43203
   C        4.23928        17.08253        -0.54636
   C        4.39182        15.85041         0.05294
   C        5.66488        15.28790         0.53102
   C        5.38798        14.13642         1.19942
   C        3.95375        13.92713         1.18202
   C        3.36324        14.93830         0.46357
   C        3.30425        12.85239         1.79360
   N        2.77221        11.96173         2.28881
   C        6.96615        15.81155         0.19445
   C        8.03869        15.73716         0.98522
   C        9.34536        16.30964         0.61948
   S       10.80243        15.17664         0.96671
   C       11.03956        16.58174         1.96709
   C        9.94369        17.27964         1.61147
   C        9.44565        18.58110         2.02955
   O        9.97241        19.28301         2.85922
   O        8.32334        18.91195         1.35727
   C        7.74685        20.17564         1.66370
   H        1.06779         0.00531        -2.16189
   H        2.56388        -0.96469        -2.05127
   H        2.49780         0.97537         1.39749
   H        5.20155         3.62793        -1.80616
   H        5.18101         4.24976        -0.12369
   H        3.99889         5.03855        -3.56500
   H        1.36775         7.47404        -1.16353
   H        1.51719         6.93668         3.74648
   H        3.35494         3.80533         1.40416
   H        2.47795         8.53696         0.30459
   H        0.42873         8.88046         2.54518
   H        1.72309        10.10093        -0.78702
   H        2.20929        10.97513        -2.72207
   H        1.76244        11.49896        -5.18506
   H        0.45639        12.56811        -4.62827
   H        0.63616         9.70048        -4.14569
   H       -0.55322        10.52997        -4.89769
   H        2.79675        13.81664        -3.65834
   H        3.67456        12.35453        -4.15524
   H        3.45033        13.21862        -1.37170
   H        4.79891        13.29801        -2.31234
   H        0.79613        14.71667        -3.93947
   H       -0.79421        16.54307        -3.53195
   H       -1.66274        17.09994        -1.26625
   H       -1.65059        15.28452         0.39862
   H       -1.12319        13.20885         1.89022
   H       -0.44737        11.03111         2.79923
   H        0.60642        18.17135        -2.39704
   H        2.21066        15.67340        -1.67907
   H        2.67020        19.56491        -2.14118
   H        6.07618        18.16759         0.11722
   H        6.09098        13.45428         1.63812
   H        2.30482        15.08617         0.35685
   H        7.04980        16.30238        -0.76728
   H        7.97471        15.28935         1.96679
   H        9.38114        16.65117        -0.41478
   H       11.85492        16.76892         2.63764
   H        7.34034        20.58339         0.73963
   H        8.50772        20.84114         2.07511
   H        6.94878        20.04347         2.39748
*
