# ORCA input file
# SCF done       -184.768175391412          0.000972629216
! CAM-B3LYP def2-SVP def2/J RIJCOSX Grid4 TightSCF
%maxcore 5000
%tddft
    Mode sTDDFT
    Ethresh 5.0
    maxcore 5000
end

%pal
  nprocs 6
  end
* xyz 0 1
   C      -10.64880        -2.66285        -0.06198
   C      -11.44633        -3.02824        -1.11516
   C      -12.20325        -4.21918        -1.16275
   N      -12.83986        -5.16761        -1.27149
   C      -11.63855        -2.27587        -2.29286
   N      -11.84927        -1.71686        -3.27358
   C      -10.48455        -3.39354         1.18198
   C       -9.61484        -2.66353         2.03868
   C       -9.28062        -3.10174         3.29898
   C       -9.84409        -4.30140         3.73767
   C      -10.70828        -5.02653         2.87943
   C      -11.03521        -4.59158         1.60084
   S      -11.27532        -6.47540         3.64331
   C      -10.37792        -6.10069         5.07714
   C       -9.67898        -4.94785         4.99363
   C       -9.19873        -1.42569         1.37964
   O       -8.44049        -0.57635         1.79924
   C       -9.86686        -1.43762         0.03958
   C       -9.64756        -0.53112        -0.94607
   C       -8.97125         0.71631        -0.82944
   C       -8.13865         1.26828        -1.90199
   N       -7.60634         2.42646        -1.62878
   C       -8.05090         2.75084        -0.38957
   C       -8.92182         1.69167         0.15063
   C       -9.44050         2.10345         1.42079
   S      -10.72090         1.25283         2.13375
   C       -8.84486         3.36199         1.69817
   C       -8.00731         3.75950         0.53983
   N       -7.53683         5.02051         0.68925
   C       -8.02131         5.45208         1.81633
   C       -8.84797         4.47711         2.53048
   C       -9.40770         4.72307         3.79721
   S       -9.52067         6.36564         4.41537
   C      -10.07615         5.77999         5.93625
   C      -10.42515         6.36503         7.15719
   C      -10.73288         5.41637         8.10002
   C      -11.18551         5.74100         9.48764
   O      -11.75885         6.77874         9.69324
   O      -10.94262         4.85747        10.43298
   S      -10.63995         3.78511         7.49320
   C      -10.15531         4.38088         5.94826
   C       -9.79898         3.77250         4.73727
   C       -9.64842         2.33796         4.59561
   C      -10.62296         1.34562         4.01095
   N      -10.14799         0.03532         4.29503
   C       -8.99884         0.16925         4.87437
   C       -8.66610         1.58777         5.12377
   C       -7.43777         1.69228         5.88866
   S       -6.70983         3.12963         6.28067
   C       -7.06384         0.35469         6.14401
   C       -7.95696        -0.57374         5.47487
   N       -7.53123        -1.83077         5.59995
   C       -6.39722        -1.76813         6.30120
   C       -6.04201        -0.45374         6.69868
   C       -4.91574        -0.07899         7.47639
   C       -4.82648         0.99736         8.30214
   C       -5.85540         1.88139         8.80102
   C       -7.15478         1.52512         9.08110
   C       -8.13180         2.41403         9.53538
   N       -9.00515         3.09775         9.84452
   C       -7.65408         0.21235         8.95214
   N       -8.09774        -0.84603         8.93010
   C       -5.20751         3.12260         9.19535
   C       -3.80148         2.92949         9.16547
   C       -3.50540         1.55890         8.70022
   O       -2.42883         1.01768         8.60866
   C       -2.91987         3.92511         9.51027
   C       -3.44735         5.16429         9.88906
   C       -4.85164         5.34740         9.90272
   C       -5.74522         4.33917         9.56565
   S       -5.27250         6.95966        10.38592
   C       -3.60177         7.36602        10.56951
   C       -2.76146         6.34810        10.28139
   H       -8.61772        -2.54599         3.94327
   H      -11.69372        -5.17640         0.98039
   H      -10.43443        -6.78092         5.90470
   H       -9.06711        -4.54129         5.77788
   H       -9.96729        -0.76599        -1.95491
   H       -7.93924         0.77678        -2.83806
   H       -7.80301         6.44333         2.17334
   H      -10.44356         7.41870         7.36418
   H      -10.31128         4.13248        10.18948
   H      -11.66216         1.49420         4.30818
   H       -5.86649        -2.66946         6.54755
   H       -4.01473        -0.67181         7.35805
   H       -1.85472         3.75508         9.48671
   H       -6.80709         4.52264         9.57626
   H       -3.34903         8.35930        10.88594
   H       -1.69043         6.41796        10.33862
*
