# ORCA input file
# SCF done       -211.831431443144          0.000937471135
! CAM-B3LYP def2-SVP def2/J RIJCOSX Grid4 TightSCF
%maxcore 5000
%tddft
    Mode sTDDFT
    Ethresh 5.0
    maxcore 5000
end

%pal
  nprocs 6
  end
* xyz 0 1
   C        5.06946        -0.60472        -9.42488
   C        3.95991        -0.34447       -10.18052
   F        3.94297        -0.70037       -11.47515
   C        2.82324         0.28687        -9.65463
   C        2.82005         0.65675        -8.33872
   C        3.93678         0.41130        -7.51282
   C        5.08463        -0.22990        -8.06696
   C        6.21776        -0.48282        -7.26137
   C        6.20440        -0.10615        -5.94363
   C        5.04712         0.51862        -5.39177
   C        3.93989         0.77721        -6.14941
   C        5.25498         0.76353        -3.95793
   O        4.52520         1.30501        -3.16757
   C        6.57104         0.10834        -3.64360
   C        7.21572        -0.23467        -4.90429
   C        8.54215        -0.49312        -5.10387
   C        9.52330        -0.47878        -4.09311
   N       10.36862        -0.47851        -3.31587
   C        9.10811        -0.76675        -6.37000
   N        9.62053        -1.00485        -7.36787
   C        6.85071        -0.19580        -2.36636
   C        7.89290        -1.05494        -1.83468
   C        8.74601        -0.58577        -0.82448
   C        8.72020         0.81228        -0.34536
   O        8.00349         1.69101        -0.71799
   S        9.98180         1.01750         0.90851
   C       10.55094        -0.68132         0.77105
   O       11.43749        -1.13061         1.42884
   C        9.73716        -1.37181        -0.25441
   C        9.95482        -2.69365        -0.66022
   C        9.10476        -3.16858        -1.66620
   C        8.10100        -2.38474        -2.23314
   C        7.29366        -3.09213        -3.25349
   O        6.36983        -2.67120        -3.88724
   S        7.91159        -4.75761        -3.44727
   C        9.19177        -4.54353        -2.20043
   O        9.95607        -5.40535        -1.89895
   C       10.99752        -3.52669        -0.06667
   C       10.89780        -4.01888         1.23641
   N       11.82092        -4.78803         1.76748
   C       12.85719        -5.10342         1.00530
   N       13.06554        -4.67728        -0.22878
   C       12.15813        -3.88783        -0.75655
   C       13.85138        -6.02505         1.59614
   C       13.57019        -7.38019         1.76230
   C       12.31158        -8.02195         1.31514
   O       11.37115        -7.51154         0.79434
   S       12.40685        -9.77756         1.68956
   C       14.05066        -9.65819         2.38923
   O       14.66989       -10.59185         2.80089
   C       14.48299        -8.24519         2.34901
   C       15.74454        -7.82429         2.79649
   C       16.03258        -6.46386         2.60675
   C       15.10300        -5.59723         2.03059
   C       15.53423        -4.18484         1.94478
   O       14.91733        -3.24899         1.54802
   S       17.21065        -4.06513         2.58873
   C       17.29739        -5.80335         3.00132
   O       18.26385        -6.29720         3.50562
   C       16.62586        -8.76263         3.46977
   C       17.90930        -9.06600         3.22212
   C       18.68803        -9.82265         4.26197
   O       18.22482       -10.43448         5.19030
   C       20.09758        -9.57428         3.92913
   C       21.21422        -9.92111         4.63609
   C       22.48365        -9.54143         4.14936
   C       22.57268        -8.79460         2.93687
   C       23.84244        -8.40867         2.46415
   C       24.95785        -8.75939         3.17316
   C       24.89078        -9.49546         4.36511
   C       23.66707        -9.87742         4.83939
   F       26.16943        -8.39309         2.72414
   C       21.40170        -8.45180         2.22359
   C       20.18070        -8.84353         2.70696
   C       18.83774        -8.64986         2.17953
   C       18.51552        -8.29228         0.90151
   C       17.20026        -8.29261         0.39531
   N       16.14664        -8.30702        -0.06006
   C       19.46802        -7.94050        -0.08094
   N       20.19988        -7.63374        -0.90883
   H        5.92705        -1.09030        -9.86361
   H        1.97734         0.46520       -10.29939
   H        1.95625         1.14323        -7.91161
   H        7.06466        -0.98341        -7.70300
   H        3.07521         1.25211        -5.71072
   H        6.19247         0.25456        -1.62779
   H       10.04509        -3.79660         1.86368
   H       12.35936        -3.52519        -1.75518
   H       16.18482        -9.28103         4.31792
   H       21.12783       -10.47687         5.55770
   H       23.93242        -7.84386         1.54949
   H       25.80511        -9.74260         4.88087
   H       23.59015       -10.44396         5.75503
   H       21.49730        -7.87483         1.31750
*
