# ORCA input file
# SCF done       -216.148806825141          0.000998875892
! CAM-B3LYP def2-SVP def2/J RIJCOSX Grid4 TightSCF
%maxcore 5000
%tddft
    Mode sTDDFT
    Ethresh 5.0
    maxcore 5000
end

%pal
  nprocs 6
  end
* xyz 0 1
   C        6.76328         4.64414        12.15001
   C        5.78450         5.12605        12.97414
   F        6.05220         5.31759        14.27724
   C        4.49685         5.43308        12.51248
   C        4.20560         5.24583        11.18998
   C        5.17777         4.75378        10.29502
   C        6.48207         4.44862        10.78378
   C        7.47810         3.96667         9.90345
   C        7.17960         3.80015         8.57727
   C        5.86905         4.09186         8.09847
   C        4.88884         4.55821         8.92627
   C        5.80300         3.80213         6.65521
   O        4.87412         3.96846         5.89913
   C        7.12473         3.20239         6.31247
   C        8.00489         3.37614         7.45037
   C        9.37570         3.38318         7.43467
   C       10.16538         3.21176         6.28401
   N       10.88327         3.13397         5.38962
   C       10.17804         3.63776         8.56681
   N       10.88540         3.81647         9.45274
   C        7.28206         2.58555         5.11357
   C        8.29659         1.65741         4.73641
   C        8.90146         0.75976         5.58401
   C        9.85160        -0.01816         4.84027
   C       10.67176        -1.01204         5.38396
   N       11.39547        -1.77665         5.84447
   C        9.88324         0.44909         3.54789
   C        8.93278         1.51974         3.42709
   C        8.76350         2.31115         2.30489
   C        9.75603         2.44346         1.18979
   C        9.10215         3.03980         0.13393
   C        7.78625         3.37801         0.55858
   C        7.60440         2.99161         1.88136
   C        6.82428         4.00213        -0.24896
   N        6.04664         4.51344        -0.92021
   C       11.13852         2.20444         1.24306
   C       11.89425         2.03967         2.37494
   C       13.25523         1.69207         2.36075
   S       14.16926         1.56360         0.87789
   C       15.58851         1.05415         1.74823
   C       15.34976         0.98063         3.11047
   C       14.04399         1.34486         3.46126
   C       13.50935         1.23410         4.85030
   C       14.60693         0.98927         5.88517
   C       15.64593         0.00197         5.34521
   C       14.99175        -1.30248         4.95111
   O       15.15324        -1.85326         3.89844
   C       16.36698         0.61829         4.14575
   C       16.76069         0.67391         1.01783
   C       17.43997        -0.50039         1.14043
   C       18.41918        -0.56994         0.07823
   C       19.30928        -1.62561        -0.15909
   N       20.03097        -2.48269        -0.40830
   C       18.31640         0.54935        -0.70617
   C       17.31380         1.40481        -0.14828
   C       17.01661         2.70004        -0.49068
   C       17.31976         3.41827        -1.75259
   C       16.91311         4.71286        -1.59069
   C       16.38056         4.87253        -0.25754
   C       16.41643         3.66525         0.38780
   C       15.90572         6.08024         0.27262
   N       15.50417         7.06636         0.70051
   C       17.86413         2.81925        -2.92336
   C       18.28137         3.47650        -4.03234
   C       18.89059         2.80762        -5.13545
   C       19.69462         1.71560        -5.06916
   C       19.91133         0.84460        -6.26360
   O       19.66807         1.12559        -7.41308
   C       20.40477        -0.43378        -5.71648
   C       20.61630        -1.62279        -6.35445
   C       21.03404        -2.74403        -5.60255
   C       21.21021        -2.61824        -4.19272
   C       21.58652        -3.74726        -3.43998
   C       21.79536        -4.93598        -4.08276
   C       21.64617        -5.07779        -5.47012
   C       21.26713        -3.99403        -6.21228
   F       22.15801        -6.01974        -3.37599
   C       21.01190        -1.36941        -3.56068
   C       20.62667        -0.29426        -4.31448
   C       20.36467         1.09061        -3.94382
   C       20.88372         1.72583        -2.84690
   C       20.76784         3.11111        -2.60802
   N       20.72811         4.23317        -2.37061
   C       21.63238         1.07470        -1.84307
   N       22.21483         0.59644        -0.97775
   H        7.74455         4.42201        12.53937
   H        3.76559         5.81010        13.20968
   H        3.22109         5.47521        10.81113
   H        8.45257         3.73436        10.30310
   H        3.90526         4.77958         8.54000
   H        6.47780         2.76481         4.40968
   H        8.67139         0.60432         6.62268
   H       10.44847         0.02724         2.73961
   H        9.52158         3.28786        -0.82257
   H        6.68063         3.08896         2.41581
   H       11.65294         2.21184         0.28719
   H       11.45095         2.19492         3.34794
   H       12.81433         0.38711         4.86601
   H       12.93408         2.12428         5.11346
   H       14.15521         0.60306         6.79954
   H       15.10844         1.92785         6.12810
   H       16.36642        -0.23098         6.13775
   H       14.33275        -1.72550         5.73052
   H       17.09703        -0.07938         3.74028
   H       16.90235         1.51893         4.46111
   H       17.24473        -1.29258         1.83832
   H       18.97425         0.78622        -1.51612
   H       16.95372         5.50314        -2.31531
   H       16.15945         3.49745         1.41563
   H       17.93294         1.74072        -2.92821
   H       18.12060         4.54025        -4.13103
   H       18.65985         3.17010        -6.13181
   H       20.45975        -1.70994        -7.41924
   H       21.69937        -3.66858        -2.37005
   H       21.82886        -6.04038        -5.92111
   H       21.13965        -4.08266        -7.28072
   H       21.14999        -1.30541        -2.49270
*
