# ORCA input file
# SCF done       -202.053836829161          0.000872096992
! CAM-B3LYP def2-SVP def2/J RIJCOSX Grid4 TightSCF
%maxcore 5000
%tddft
    Mode sTDDFT
    Ethresh 5.0
    maxcore 5000
end

%pal
  nprocs 6
  end
* xyz 0 1
   C        9.95389         5.19892       -15.16362
   C       10.86192         5.89912       -15.90772
   F       10.43322         6.65875       -16.93396
   C       12.23786         5.85992       -15.64637
   C       12.69176         5.09360       -14.60900
   C       11.79984         4.35037       -13.80934
   C       10.40376         4.40539       -14.09057
   C        9.48814         3.67569       -13.29629
   C        9.95817         2.91421       -12.26208
   C       11.35636         2.84950       -11.99485
   C       12.26020         3.55028       -12.73885
   C       11.59369         1.93345       -10.85938
   O       12.64860         1.67164       -10.32395
   C       10.26576         1.34963       -10.55015
   C        9.26422         2.10172       -11.26655
   C        7.95255         2.25527       -10.89287
   C        7.42152         1.69253        -9.71495
   N        6.98266         1.29993        -8.72912
   C        7.03376         3.07401       -11.57573
   N        6.24526         3.71674       -12.10861
   C       10.17800         0.22651        -9.77725
   C        9.15240        -0.73201        -9.71294
   S        7.94269        -0.96550       -10.97038
   C        7.23813        -2.31238       -10.14733
   C        7.87445        -2.57170        -8.98334
   C        8.97546        -1.70217        -8.73501
   C        9.56994        -2.05695        -7.49437
   C        8.89333        -3.10854        -6.94247
   C        7.74742        -3.52486        -7.84352
   C        9.16027        -3.75630        -5.68527
   C        8.29510        -4.70394        -5.18218
   C        8.53467        -5.29711        -3.92730
   C        7.80055        -6.22598        -3.20501
   C        6.52429        -6.87176        -3.63120
   C        6.65548        -8.40491        -3.69438
   N        5.68601        -8.93124        -4.63637
   C        5.35683        -6.42729        -2.73183
   N        4.08381        -6.87591        -3.27746
   C        8.50899        -6.43967        -1.96396
   C        8.22635        -7.19287        -0.88525
   C        9.12075        -7.22262         0.31061
   C       10.36150        -6.40172         0.18336
   C       10.62105        -5.63552        -0.89087
   C        9.72272        -5.60640        -1.98509
   C        9.72332        -4.91446        -3.17608
   C       10.61297        -3.96265        -3.72929
   C       10.33481        -3.40492        -4.93175
   C        9.38947        -8.66548         0.65270
   C       10.52262        -9.30778         0.35612
   C       10.77911       -10.67458         0.68157
   S        9.63900       -11.66628         1.55479
   C       10.69673       -13.04218         1.54202
   C       11.85142       -12.75912         0.90680
   C       11.91039       -11.41831         0.40671
   C       13.15074       -11.24318        -0.26169
   C       13.89822       -12.38691        -0.16160
   C       13.12723       -13.46158         0.58068
   C       15.15272       -12.57409        -0.79256
   C       16.11490       -13.50875        -0.54498
   C       17.07241       -13.89663        -1.61624
   O       17.26078       -13.32335        -2.66464
   C       17.68001       -15.16018        -1.14961
   C       18.52813       -16.00287        -1.80747
   C       18.96841       -17.18072        -1.16191
   C       18.51623       -17.46522         0.15967
   C       18.95345       -18.64444         0.79299
   C       19.80241       -19.48693         0.13076
   C       20.26035       -19.22422        -1.16730
   C       19.84443       -18.08430        -1.79736
   F       20.22109       -20.61392         0.73475
   C       17.64446       -16.56908         0.82165
   C       17.23726       -15.43356         0.17717
   C       16.38648       -14.32980         0.60999
   C       16.13894       -13.97503         1.91244
   C       15.58548       -12.72630         2.26498
   N       15.17673       -11.69991         2.57699
   C       16.49887       -14.76380         3.02180
   N       16.74656       -15.38775         3.95328
   H        8.90087         5.25565       -15.39119
   H       12.90728         6.43369       -16.26751
   H       13.74758         5.04743       -14.38784
   H        8.43681         3.72915       -13.53180
   H       13.31518         3.49610       -12.51527
   H       11.06529        -0.00285        -9.19400
   H        6.39952        -2.80789       -10.59574
   H       10.41416        -1.54471        -7.07272
   H        6.78392        -3.41125        -7.34278
   H        7.84337        -4.56524        -8.16089
   H        7.41354        -4.99011        -5.73485
   H        6.29650        -6.54684        -4.65130
   H        6.55260        -8.82516        -2.68051
   H        7.65574        -8.66119        -4.06052
   H        4.75543        -8.66617        -4.32439
   H        5.73750        -9.94370        -4.66937
   H        5.41293        -5.33119        -2.61356
   H        5.46250        -6.87093        -1.73861
   H        3.91335        -6.42570        -4.17160
   H        3.32497        -6.61978        -2.65458
   H        7.34569        -7.81625        -0.83100
   H        8.53564        -6.80864         1.14971
   H       11.03707        -6.43881         1.02454
   H       11.51798        -5.03491        -0.93628
   H       11.50279        -3.68607        -3.18302
   H       11.01299        -2.68028        -5.35201
   H        8.58391        -9.19822         1.14090
   H       11.32619        -8.78973        -0.15011
   H       10.37227       -13.94811         2.01361
   H       13.46918       -10.33893        -0.74834
   H       13.62409       -13.80695         1.48635
   H       12.97025       -14.33298        -0.06093
   H       15.34000       -11.95026        -1.66211
   H       18.86172       -15.77484        -2.80871
   H       18.62428       -18.87660         1.79382
   H       20.92984       -19.92526        -1.63988
   H       20.18404       -17.86040        -2.79741
   H       17.31119       -16.80851         1.81943
*
