# ORCA input file
# SCF done       -206.597679114134          0.000446472678
! CAM-B3LYP def2-SVP def2/J RIJCOSX Grid4 TightSCF
%maxcore 5000
%tddft
    Mode sTDDFT
    Ethresh 5.0
    maxcore 5000
end

%pal
  nprocs 6
  end
* xyz 0 1
   C       -6.94622         0.57891        13.69929
   C       -6.32140         0.26008        12.51793
   C       -6.68927        -0.82634        11.70229
   N       -6.96857        -1.68099        10.98729
   C       -5.17578         0.93172        12.05050
   N       -4.21081         1.42030        11.66468
   C       -7.92673        -0.25403        14.38930
   C       -7.98434         0.15574        15.75343
   C       -8.79132        -0.47235        16.65648
   C       -9.59809        -1.55135        16.22728
   C       -9.55427        -1.95679        14.86262
   C       -8.70348        -1.29057        13.94966
   C      -10.36467        -3.03243        14.44762
   C      -11.17789        -3.68081        15.33695
   C      -11.22061        -3.28098        16.68052
   C      -10.44763        -2.23882        17.11588
   C       -7.07598         1.30154        15.95339
   O       -6.82411         1.88207        16.98727
   C       -6.56511         1.63852        14.59933
   C       -5.90030         2.81472        14.40172
   C       -5.68344         3.54240        13.21196
   N       -4.66571         4.46787        13.14226
   C       -4.67585         5.07554        11.94559
   C       -5.76335         4.61167        11.21230
   C       -6.40694         3.63882        12.01576
   C       -7.67951         2.94830        11.68515
   C       -6.16332         5.00432         9.89024
   C       -5.53859         5.91461         9.11738
   C       -5.96509         6.22937         7.79273
   C       -5.31066         7.08493         6.98040
   C       -5.65996         7.39840         5.61593
   C       -6.87988         7.07680         5.07029
   C       -7.15089         7.33116         3.70743
   C       -8.26245         7.07611         2.91655
   C       -9.59584         6.48979         3.26296
   C       -9.53815         4.95436         3.39959
   N       -8.69213         4.53931         4.50470
   C      -10.22758         7.12796         4.50841
   N      -10.34253         8.56646         4.31586
   C       -7.91935         7.49162         1.57490
   C       -8.60358         7.41242         0.41960
   C       -8.02531         7.88257        -0.87201
   C       -6.64105         8.44279        -0.76525
   C       -5.96955         8.51603         0.39800
   C       -6.55671         8.04125         1.59556
   C       -6.10292         7.94308         2.89229
   C       -4.87381         8.30996         3.49212
   C       -4.66958         8.05282         4.80595
   C       -8.94625         8.91772        -1.47055
   C       -9.64497         8.72480        -2.58999
   C      -10.51169         9.67598        -3.22976
   N      -10.65683        10.97289        -2.79391
   C      -11.50080        11.64332        -3.59564
   C      -11.94388        10.77886        -4.59121
   C      -11.30810         9.52267        -4.34914
   C      -11.49665         8.29825        -5.17509
   C      -12.84511        11.05628        -5.65973
   C      -13.37413        12.26885        -5.96195
   C      -14.25458        12.46284        -7.04945
   C      -14.76652        13.67408        -7.41435
   C      -15.63288        13.80556        -8.51443
   C      -16.16361        14.98347        -8.97498
   C      -17.05737        15.14210       -10.10169
   C      -17.58614        14.14898       -10.89005
   C      -18.46099        14.37738       -11.97127
   N      -19.17672        14.48620       -12.86326
   C      -17.35206        12.76688       -10.74713
   N      -17.22033        11.62569       -10.70579
   C      -17.32291        16.56924       -10.26247
   C      -16.62358        17.27825        -9.24544
   C      -15.88485        16.31959        -8.40110
   O      -15.19228        16.59352        -7.44045
   C      -16.67857        18.63760        -9.14461
   C      -17.45068        19.36779       -10.07644
   C      -18.15366        18.66657       -11.09712
   C      -18.07787        17.25655       -11.17508
   C      -18.92006        19.40345       -12.02266
   C      -18.98951        20.76781       -11.94581
   C      -18.29622        21.45757       -10.94038
   C      -17.54356        20.77227       -10.02555
   H       -8.81434        -0.15310        17.68790
   H       -8.69364        -1.61293        12.92002
   H      -10.32596        -3.33845        13.41235
   H      -11.79219        -4.50632        15.00966
   H      -11.86858        -3.80263        17.36903
   H      -10.47640        -1.92652        18.14968
   H       -5.54834         3.29065        15.31392
   H       -3.94739         4.56420        13.84172
   H       -3.92674         5.79278        11.67526
   H       -8.34250         3.62039        11.14359
   H       -8.18384         2.61359        12.58994
   H       -7.49948         2.07579        11.05250
   H       -7.03131         4.49787         9.49045
   H       -4.66202         6.42974         9.48571
   H       -6.84721         5.71227         7.44006
   H       -4.40692         7.55399         7.35230
   H       -7.63421         6.60719         5.67898
   H      -10.27085         6.70575         2.42837
   H       -9.21384         4.53845         2.42930
   H      -10.54937         4.58855         3.60140
   H       -7.72303         4.75757         4.29597
   H       -8.75959         3.53608         4.63699
   H       -9.65308         6.84495         5.39939
   H      -11.24020         6.73027         4.62736
   H       -9.41768         8.96351         4.17835
   H      -10.74325         8.99729         5.14221
   H       -9.60728         7.01186         0.36918
   H       -8.00383         7.02326        -1.55948
   H       -6.20747         8.79713        -1.68860
   H       -4.97011         8.92625         0.43151
   H       -4.11233         8.78630         2.89131
   H       -3.73278         8.32111         5.27402
   H       -8.99483         9.84206        -0.91242
   H       -9.56782         7.77276        -3.09776
   H      -10.18787        11.35591        -1.99030
   H      -11.74672        12.67136        -3.41984
   H      -12.54274         7.99237        -5.16731
   H      -10.89807         7.47455        -4.79795
   H      -11.20934         8.48790        -6.20898
   H      -13.11064        10.21261        -6.28379
   H      -13.11717        13.13599        -5.37016
   H      -14.52692        11.58767        -7.62876
   H      -14.50257        14.56180        -6.85906
   H      -15.88651        12.89037        -9.03460
   H      -16.13787        19.15140        -8.36342
   H      -18.62090        16.75703       -11.96141
   H      -19.45207        18.86727       -12.79499
   H      -19.57912        21.32324       -12.65994
   H      -18.36124        22.53458       -10.89443
   H      -17.00742        21.29826        -9.24888
*
