# ORCA input file
# SCF done       -210.391324303615          0.000424550921
! CAM-B3LYP def2-SVP def2/J RIJCOSX Grid4 TightSCF
%maxcore 5000
%tddft
    Mode sTDDFT
    Ethresh 5.0
    maxcore 5000
end

%pal
  nprocs 6
  end
* xyz 0 1
   C       -4.74073        -2.50427        -0.34532
   C       -3.43504        -2.81249        -0.06309
   C       -2.92902        -4.12682         0.00121
   N       -2.46170        -5.17388         0.06218
   C       -2.43483        -1.86662         0.24658
   N       -1.57523        -1.16459         0.54119
   C       -5.82383        -3.45849        -0.53853
   C       -7.04254        -2.74427        -0.65699
   C       -8.25050        -3.37234        -0.84104
   C       -8.25911        -4.76918        -0.90457
   C       -7.03669        -5.47275        -0.78849
   C       -5.81335        -4.83882        -0.60702
   S       -7.28460        -7.18690        -0.90535
   C       -8.98720        -6.95178        -1.10122
   C       -9.36036        -5.65370        -1.08210
   C       -6.77799        -1.29498        -0.58179
   O       -7.58532        -0.40833        -0.76313
   C       -5.30878        -1.17116        -0.39139
   C       -4.61461        -0.00227        -0.45908
   C       -5.17492         1.29827        -0.29133
   C       -4.65431         2.40047        -1.00039
   C       -5.20630         3.72765        -0.87120
   N       -4.63284         4.74434        -1.53797
   C       -3.62172         4.50204        -2.33753
   C       -3.13191         3.16836        -2.52529
   N       -3.64280         2.16710        -1.85508
   C       -2.07757         2.93034        -3.44226
   N       -1.23402         2.78294        -4.20325
   C       -2.99215         5.57030        -3.02183
   N       -2.45129         6.39665        -3.60349
   C       -6.30167         4.00031        -0.01430
   C       -6.75766         2.91304         0.75815
   C       -6.20388         1.58353         0.62544
   N       -6.75182         0.72629         1.48517
   S       -7.89056         1.48358         2.31878
   N       -7.73009         2.94219         1.67663
   C       -6.89072         5.31986         0.09118
   C       -6.96502         6.16718        -1.02743
   C       -7.47303         7.43446        -0.88790
   C       -7.97067         7.87023         0.35639
   C       -7.92187         7.03123         1.46401
   C       -7.38181         5.77242         1.32641
   C       -8.49428         9.20386         0.20588
   C       -8.32196         9.60277        -1.13304
   C       -7.61788         8.52351        -1.92595
   C       -6.24466         9.09904        -2.34799
   C       -5.27298         8.10352        -2.96364
   C       -8.43805         8.06574        -3.14066
   C       -9.83642         7.59806        -2.75320
   C       -8.71362        10.84972        -1.54268
   C       -9.29039        11.74597        -0.62229
   C       -9.47873        11.31978         0.70464
   C       -9.08972        10.06647         1.12081
   C       -9.61603        13.06254        -1.08072
   C      -10.10450        14.09704        -0.34866
   C      -10.31654        15.39022        -0.86490
   S       -9.94034        15.78770        -2.51387
   C      -10.39292        17.45333        -2.32307
   C      -10.83774        17.69055        -1.00973
   C      -10.79640        16.52738        -0.18769
   C      -11.20706        16.61897         1.14977
   C      -11.64454        17.81511         1.67331
   C      -12.05836        17.89303         3.07329
   C      -12.66231        16.91553         3.73602
   C      -11.67906        18.98001         0.85195
   C      -12.16428        20.28149         1.41364
   C      -11.28604        18.90329        -0.45822
   C      -10.28119        18.37481        -3.38236
   C       -9.81352        18.05869        -4.61978
   C       -9.65903        18.95341        -5.71008
   C       -9.16077        18.60720        -6.96215
   C       -9.14194        19.76558        -7.78615
   C       -8.74255        19.95921        -9.08622
   C       -8.84961        21.25814        -9.61642
   C       -8.53619        21.76930       -10.86527
   C       -8.83968        23.16974       -10.88761
   C       -9.34017        23.51740        -9.64820
   C       -9.36589        22.35287        -8.81545
   C       -9.76515        22.16371        -7.52081
   C       -9.65710        20.86111        -6.98488
   C       -9.96508        20.35771        -5.73591
   C       -8.66149        24.07395       -11.99795
   C       -8.17160        23.74770       -13.19102
   H       -9.16212        -2.80189        -0.93047
   H       -4.90758        -5.41734        -0.53262
   H       -9.61272        -7.81491        -1.22135
   H      -10.37577        -5.31748        -1.19025
   H       -3.55757        -0.01965        -0.69316
   H       -6.65399         5.79815        -1.99040
   H       -8.29472         7.36294         2.42146
   H       -7.31663         5.12132         2.18273
   H       -5.77931         9.53791        -1.46135
   H       -6.42936         9.90883        -3.05751
   H       -4.99722         7.33729        -2.24554
   H       -4.36432         8.61902        -3.26515
   H       -5.69302         7.62795        -3.84604
   H       -7.91340         7.24938        -3.63801
   H       -8.51438         8.89551        -3.84653
   H       -9.78253         6.76118        -2.06021
   H      -10.38353         7.27798        -3.63711
   H      -10.39319         8.40193        -2.27616
   H       -8.57576        11.16592        -2.56678
   H       -9.93175        11.99171         1.41719
   H       -9.23560         9.76136         2.14642
   H       -9.41040        13.25146        -2.12824
   H      -10.33542        13.96525         0.69855
   H      -11.15990        15.74723         1.78352
   H      -11.85258        18.82696         3.57852
   H      -12.92356        15.98118         3.26748
   H      -12.93763        17.02119         4.77132
   H      -11.47607        20.65155         2.17403
   H      -13.14303        20.16059         1.87541
   H      -12.23898        21.03160         0.63020
   H      -11.32088        19.78613        -1.07924
   H      -10.58369        19.38920        -3.16579
   H       -9.51721        17.03336        -4.80722
   H       -8.83960        17.62651        -7.26130
   H       -8.35621        19.14909        -9.68859
   H       -8.13122        21.20896       -11.68792
   H       -9.66076        24.49779        -9.34600
   H      -10.15008        22.97388        -6.91710
   H      -10.36809        20.92095        -4.91386
   H       -8.96280        25.09624       -11.80484
   H       -7.85817        22.74601       -13.43022
   H       -8.06633        24.47757       -13.97477
*
