# ORCA input file
# SCF done       -205.640601884005          0.000825426192
! CAM-B3LYP def2-SVP def2/J RIJCOSX Grid4 TightSCF
%maxcore 5000
%tddft
    Mode sTDDFT
    Ethresh 5.0
    maxcore 5000
end

%pal
  nprocs 6
  end
* xyz 0 1
   C      -10.15157         2.22476         0.18755
   C      -11.18670         1.69633         0.91835
   C      -11.01443         0.99149         2.12566
   N      -10.94550         0.38043         3.09700
   C      -12.55755         1.72177         0.58688
   N      -13.69464         1.71070         0.42352
   C       -8.75110         2.18025         0.59371
   C       -7.96422         2.73264        -0.44213
   C       -6.59693         2.82526        -0.37293
   C       -5.96745         2.33497         0.77428
   C       -6.76038         1.80713         1.81905
   C       -8.14624         1.72392         1.75140
   S       -5.78547         1.29294         3.16326
   C       -4.34654         1.76769         2.30150
   C       -4.57903         2.29146         1.07616
  Br       -2.67460         1.53893         3.10672
   C       -8.83592         3.16041        -1.55194
   O       -8.44892         3.65413        -2.59228
   C      -10.21757         2.86789        -1.11476
   C      -11.39243         3.15745        -1.75769
   C      -11.65195         3.75273        -3.00719
   S      -13.35626         4.04821        -3.37214
   C      -12.94750         4.73476        -4.89303
   O      -13.86447         5.21156        -5.73870
   C      -11.57173         4.73354        -5.13935
   C      -10.86592         4.17218        -4.05696
   C      -11.03150         5.26278        -6.35508
   C       -9.72517         5.22149        -6.72088
   C       -9.24767         5.77673        -7.92534
   C       -7.94412         5.72158        -8.34312
   C       -7.39620         6.28715        -9.52438
   C       -6.06080         6.07962        -9.68142
   C       -5.47324         5.32652        -8.63890
   S       -6.67926         4.90118        -7.44090
   C       -4.16271         4.92449        -8.48985
   C       -3.03285         5.19192        -9.29809
   C       -1.88128         4.63409        -8.83837
   C       -2.01905         3.87903        -7.63753
   S       -3.70613         3.91626        -7.13834
   C       -1.00670         3.29012        -6.93565
   C       -1.11155         2.55091        -5.71276
   C       -2.31572         1.95247        -5.30260
   C       -2.39820         1.34702        -4.07654
   C       -1.26845         1.26877        -3.23600
   C       -0.05268         1.80091        -3.65567
   C        0.01680         2.42879        -4.87986
   C       -1.64058         0.56760        -2.03099
   C       -2.99804         0.20577        -2.13422
   C       -3.59554         0.69336        -3.43319
   C       -4.69876         1.71217        -3.06070
   C       -5.42086         2.39879        -4.21183
   C       -4.15586        -0.46000        -4.27838
   C       -3.12823        -1.56051        -4.51660
   C       -3.63881        -0.43776        -1.11146
   C       -2.93701        -0.74476         0.06943
   C       -1.57424        -0.39937         0.15132
   C       -0.92596         0.24603        -0.87960
   C       -3.59781        -1.30338         1.21014
   C       -4.92223        -1.61625         1.27300
   C       -5.57232        -1.92386         2.47942
   C       -6.91140        -2.03757         2.74940
   C       -8.13241        -1.87578         1.99332
   C       -8.34946        -1.31224         0.75620
   C       -9.61897        -1.13958         0.16395
   N      -10.58440        -0.92146        -0.42095
   C       -7.45063        -0.71541        -0.14335
   N       -6.86907        -0.17236        -0.97621
   C       -9.23499        -2.30976         2.85284
   C       -8.73668        -2.59639         4.14673
   C       -7.27557        -2.42475         4.13939
   O       -6.50628        -2.57544         5.06366
   C       -9.54426        -2.97390         5.19061
   C      -10.91748        -3.07978         4.94687
   C      -11.40544        -2.81558         3.64625
   C      -10.58644        -2.43763         2.59088
   S      -13.12780        -3.01000         3.55549
   C      -13.16942        -3.43850         5.24421
   C      -11.95704        -3.43725         5.84772
  Br      -14.80795        -3.85522         6.05317
   H       -6.03335         3.26234        -1.17985
   H       -8.70288         1.31978         2.58113
   H       -3.80595         2.62640         0.40908
   H      -12.29653         2.90594        -1.21633
   H      -14.75872         5.11050        -5.38958
   H       -9.79612         4.07915        -4.02811
   H      -11.75355         5.71955        -7.01857
   H       -8.99793         4.74615        -6.07643
   H       -9.95448         6.28776        -8.56642
   H       -8.01253         6.83263       -10.21742
   H       -5.48361         6.43749       -10.51549
   H       -3.10098         5.79695       -10.18482
   H       -0.92395         4.73831        -9.31864
   H       -0.00519         3.45635        -7.31362
   H       -3.16087         1.93264        -5.96900
   H        0.82426         1.72584        -3.02958
   H        0.95195         2.86144        -5.20620
   H       -4.23111         2.47728        -2.43360
   H       -5.43458         1.18177        -2.45522
   H       -4.75944         3.06913        -4.75242
   H       -6.24676         2.98584        -3.81512
   H       -5.83733         1.67656        -4.90759
   H       -4.48368        -0.06713        -5.24123
   H       -5.02666        -0.87395        -3.76687
   H       -2.25414        -1.16448        -5.02999
   H       -3.55873        -2.34893        -5.12994
   H       -2.80282        -1.99767        -3.57492
   H       -4.68523        -0.67391        -1.20745
   H       -1.03351        -0.63453         1.05673
   H        0.11632         0.51205        -0.78628
   H       -3.00249        -1.40278         2.11055
   H       -5.51996        -1.57552         0.38089
   H       -4.94217        -2.06715         3.35370
   H       -9.13017        -3.17503         6.16619
   H      -11.01600        -2.26351         1.61942
   H      -11.80140        -3.67621         6.88399
*
