# ORCA input file
# SCF done       -227.269042150842          0.000870450942
! CAM-B3LYP def2-SVP def2/J RIJCOSX Grid4 TightSCF
%maxcore 5000
%tddft
    Mode sTDDFT
    Ethresh 5.0
    maxcore 5000
end

%pal
  nprocs 6
  end
* xyz 0 1
   C       -5.66926        -1.91142         2.22588
   C       -4.57814        -2.42171         2.87717
   C       -4.42564        -3.78272         3.21532
   N       -4.24577        -4.87738         3.50943
   C       -3.48189        -1.65865         3.33356
   N       -2.56874        -1.10420         3.75427
   C       -6.85802        -2.65752         1.83982
   C       -7.82517        -1.74625         1.35098
   C       -9.06248        -2.14682         0.90778
   C       -9.35962        -3.51269         0.94928
   C       -8.38468        -4.41709         1.43546
   C       -7.13394        -4.01212         1.88337
   S       -8.95667        -6.05725         1.39232
   C      -10.47691        -5.51369         0.73370
   C      -10.55453        -4.17365         0.55376
  Br      -11.81748        -6.76636         0.34517
   C       -7.28556        -0.37168         1.39590
   O       -7.86565         0.63020         1.04045
   C       -5.88609        -0.51433         1.88052
   C       -4.91041         0.42724         1.78047
   C       -5.07610         1.82620         1.49526
   C       -6.16132         2.56585         1.99035
   C       -6.27695         3.89014         1.65099
   C       -5.33032         4.50378         0.81111
   C       -4.22721         3.79245         0.35580
   C       -4.09812         2.46927         0.71890
   C       -5.73650         5.87384         0.58439
   C       -6.92539         6.10993         1.29602
   C       -7.35215         4.87240         2.04908
   C       -8.74700         4.39385         1.60563
   C       -8.80990         4.04347         0.12423
   C       -7.34966         5.11575         3.57056
   C       -6.00695         5.61568         4.09024
   C       -7.54671         7.33416         1.23495
   C       -6.99563         8.34844         0.44352
   C       -5.81685         8.09620        -0.26623
   C       -5.17688         6.87451        -0.19654
   C       -7.63237         9.65026         0.31200
   C       -8.48269        10.19935         1.17947
   C       -9.14983        11.49242         0.93115
   C       -8.76180        12.72386         1.46435
   N       -7.70586        13.05724         2.29406
   C       -6.75731        12.10934         2.81802
   C       -5.54492        11.93603         1.90323
   C       -7.73233        14.41125         2.53086
   C       -8.85542        14.96590         1.86469
   C       -9.49732        13.89246         1.16528
   C      -10.61251        13.85369         0.34011
   C      -10.98456        12.63899        -0.19539
   C      -10.26183        11.48808         0.09717
   C       -9.18305        16.30663         1.97755
   C       -8.39020        17.10978         2.77775
   C       -7.29232        16.58214         3.43064
   C       -6.90647        15.23599         3.32475
   C       -5.68865        14.81516         3.96758
   C       -5.16858        15.38301         5.08897
   C       -3.93004        15.01069         5.64127
   C       -3.38575        15.57875         6.76512
   C       -2.13802        15.27738         7.36177
   C       -1.85116        16.02220         8.46566
   C       -2.85964        16.95183         8.80602
   S       -4.18561        16.85284         7.67952
   C       -2.86501        17.84571         9.86455
   C       -1.86799        18.03802        10.84113
   C       -2.17499        19.00428        11.75591
   C       -3.42962        19.61665        11.54936
   S       -4.20678        18.93615        10.14305
   C       -3.98899        20.62368        12.31659
   C       -5.24867        21.15599        12.08393
   C       -5.88405        22.17777        12.76269
   C       -5.40147        23.16411        13.68559
   C       -4.12047        23.66218        13.78311
   C       -3.72951        24.65177        14.70394
   N       -3.34392        25.43855        15.44763
   C       -3.06875        23.33485        12.90659
   N       -2.18410        23.15156        12.19671
   C       -6.56522        23.72526        14.37520
   C       -7.73871        23.23518        13.75113
   C       -7.35392        22.29018        12.67914
   O       -8.09308        21.70024        11.91848
   C       -8.99786        23.60918        14.14828
   C       -9.10591        24.50200        15.22109
   C       -7.92951        24.97459        15.84540
   C       -6.65307        24.60238        15.43738
   S       -8.29206        26.05818        17.15560
   C       -9.99743        25.86623        16.84604
   C      -10.28265        25.03378        15.81794
  Br      -11.24056        26.78242        17.91219
   H       -9.77856        -1.42828         0.54076
   H       -6.42219        -4.73872         2.23811
   H      -11.41764        -3.67062         0.15762
   H       -3.88131         0.09584         1.86353
   H       -6.87426         2.09839         2.64943
   H       -3.48362         4.26515        -0.26802
   H       -3.25132         1.89592         0.36984
   H       -9.47058         5.18129         1.82853
   H       -9.01752         3.51247         2.18931
   H       -8.47180         4.87794        -0.48707
   H       -9.83243         3.80254        -0.15631
   H       -8.18718         3.17794        -0.08615
   H       -7.60713         4.18125         4.07284
   H       -8.12563         5.84688         3.80772
   H       -5.22095         4.89284         3.88305
   H       -6.05622         5.77019         5.16568
   H       -5.73797         6.55860         3.61870
   H       -8.47021         7.50699         1.76683
   H       -5.39950         8.88219        -0.87994
   H       -4.26658         6.70014        -0.75042
   H       -7.35842        10.21449        -0.57213
   H       -8.77624         9.67357         2.08064
   H       -7.26065        11.14608         2.92311
   H       -6.45199        12.44098         3.81430
   H       -5.84922        11.46692         0.97130
   H       -4.80478        11.30065         2.38285
   H       -5.09042        12.89540         1.66636
   H      -11.16533        14.75431         0.12330
   H      -11.84209        12.57193        -0.84743
   H      -10.57170        10.54578        -0.33117
   H      -10.03928        16.70609         1.45703
   H       -8.61880        18.15868         2.88801
   H       -6.67024        17.24472         4.01166
   H       -5.11530        14.02652         3.50396
   H       -5.72092        16.14968         5.61530
   H       -3.35571        14.23708         5.14703
   H       -1.49015        14.52190         6.95302
   H       -0.94745        15.92921         9.04024
   H       -0.95654        17.46778        10.84847
   H       -1.53604        19.29948        12.56879
   H       -3.40039        20.97146        13.15274
   H       -5.86525        20.66267        11.33754
   H       -9.87407        23.22656        13.64877
   H       -5.78608        24.98741        15.94800
   H      -11.28006        24.80176        15.49164
*
