# ORCA input file
# SCF done       -195.185376702433          0.004236955853
! CAM-B3LYP def2-SVP def2/J RIJCOSX Grid4 TightSCF
%maxcore 5000
%tddft
    Mode sTDDFT
    Ethresh 5.0
    maxcore 5000
end

%pal
  nprocs 6
  end
* xyz 0 1
   C      -17.70738        -9.72440         3.90577
   C      -16.52986       -10.24353         3.40830
   C      -16.05661       -11.54004         3.68374
   N      -15.61458       -12.58224         3.88240
   C      -15.65115        -9.58936         2.52958
   N      -14.88243        -9.16496         1.78688
   C      -18.68003       -10.46853         4.70396
   C      -19.80589        -9.63985         4.92996
   C      -20.90930       -10.06505         5.62628
   C      -20.90210       -11.37281         6.12763
   C      -19.76928       -12.18812         5.90540
   C      -18.65173       -11.75747         5.19867
   S      -19.96775       -13.76581         6.60855
   C      -21.55310       -13.31465         7.17870
   C      -21.91455       -12.04846         6.86417
  Br      -22.58200       -14.56057         8.13390
   C      -19.56727        -8.31829         4.30470
   O      -20.33181        -7.37195         4.31293
   C      -18.22838        -8.40405         3.69844
   C      -17.56823        -7.34976         3.08820
   C      -18.09409        -6.08565         2.87819
   C      -17.36410        -5.05468         2.30531
   C      -17.81242        -3.75127         2.01944
   C      -16.86199        -2.94139         1.45643
   C      -15.61861        -3.56998         1.28260
   S      -15.68744        -5.22744         1.84023
   C      -14.44102        -3.03616         0.77279
   C      -14.20679        -1.75658         0.24095
   C      -12.91507        -1.56036        -0.16239
   C      -12.05903        -2.66841         0.02499
   S      -12.97678        -3.98128         0.73853
   C      -10.70108        -2.62863        -0.23622
   C       -9.66538        -3.55056        -0.10689
   S       -8.05041        -2.85167        -0.17988
   C       -9.56410        -4.94920         0.07201
   C      -10.58014        -5.90742         0.00535
   C      -10.32145        -7.25511         0.13537
   O      -11.29332        -8.19077         0.07958
   C      -12.64591        -7.78053         0.03475
   C       -8.97027        -7.70574         0.31756
   O       -8.56131        -8.98980         0.42945
   C       -9.46564       -10.06107         0.61516
   C       -7.95507        -6.77710         0.34247
   C       -8.21869        -5.40443         0.20154
   C       -7.28297        -4.37658         0.07038
   N       -5.91795        -4.48873         0.06308
   C       -5.11714        -3.72478        -0.74740
   S       -3.59938        -3.11580        -0.17091
   C       -3.40986        -2.23164        -1.65152
   N       -2.23905        -1.48437        -1.81685
   O       -2.11537        -0.84459        -2.84447
   O       -1.42709        -1.52846        -0.90789
   C       -4.45412        -2.39814        -2.52435
   C       -5.43237        -3.27746        -2.03447
   C       -6.60122        -3.73500        -2.75982
   C       -7.01577        -5.01336        -2.66633
   C       -8.27991        -5.52467        -3.07299
   S       -9.58652        -4.41971        -3.32567
   C      -10.77206        -5.66622        -3.40285
   C      -10.17675        -6.91830        -3.23857
   C       -8.74769        -6.84448        -3.08454
   C       -8.02889        -8.06855        -2.98611
   C       -6.52875        -8.13095        -3.03152
   F       -5.99367        -7.30964        -3.95171
   F       -5.93327        -7.81683        -1.85718
   F       -6.07795        -9.35593        -3.33459
   C       -8.70713        -9.25738        -2.91207
   C      -10.11145        -9.30085        -2.94577
   C      -10.83531        -8.16180        -3.12813
   C      -12.14261        -5.27820        -3.60504
   C      -13.10727        -6.00864        -4.16315
   H      -21.75512        -9.41276         5.77929
   H      -17.81319       -12.41850         5.05612
   H      -22.85665       -11.60819         7.13691
   H      -16.55009        -7.51595         2.75488
   H      -19.11389        -5.88248         3.17038
   H      -18.82078        -3.44627         2.23501
   H      -17.02990        -1.91685         1.17646
   H      -14.98276        -1.01679         0.16608
   H      -12.55254        -0.64185        -0.58949
   H      -10.36134        -1.64485        -0.54483
   H      -11.58412        -5.58620        -0.19247
   H      -12.88681        -7.10313         0.85721
   H      -13.23262        -8.68898         0.14889
   H      -12.88394        -7.29808        -0.91757
   H      -10.10038       -10.20879        -0.26075
   H      -10.09332        -9.91303         1.49802
   H       -8.82996       -10.93626         0.76229
   H       -6.94477        -7.13784         0.44459
   H       -5.48345        -5.12461         0.71843
   H       -4.48171        -1.93410        -3.49333
   H       -7.14202        -3.00906        -3.35080
   H       -6.36838        -5.70639        -2.15506
   H       -8.15828       -10.18243        -2.83340
   H      -10.60714       -10.25452        -2.85415
   H      -11.91089        -8.19977        -3.16750
   H      -12.36261        -4.26176        -3.29874
   H      -12.93787        -6.99403        -4.55961
   H      -14.10362        -5.61595        -4.26875
*
