# ORCA input file
# SCF done       -171.273904330666          0.000515885917
! CAM-B3LYP def2-SVP def2/J RIJCOSX Grid4 TightSCF
%maxcore 5000
%tddft
    Mode sTDDFT
    Ethresh 5.0
    maxcore 5000
end

%pal
  nprocs 6
  end
* xyz 0 1
   C      -11.19159        -2.76384        -9.29289
   C      -10.58761        -3.78998        -8.59424
   C      -10.02675        -4.93005        -9.20249
   N       -9.55665        -5.88207        -9.64154
   C      -10.43570        -3.87225        -7.20112
   N      -10.25683        -4.03460        -6.07549
   C      -11.32063        -2.70845       -10.74976
   C      -12.00429        -1.51820       -11.09684
   C      -12.27221        -1.16708       -12.39559
   C      -11.84258        -2.03347       -13.40800
   C      -11.16265        -3.21994       -13.05294
   C      -10.89299        -3.57582       -11.73579
   S      -10.71655        -4.14508       -14.45598
   C      -11.43922        -2.93766       -15.48492
   C      -11.98785        -1.89655       -14.81613
  Br      -11.40021        -3.16462       -17.34749
   C      -12.33739        -0.77305        -9.86225
   O      -12.93063         0.28789        -9.80467
   C      -11.79873        -1.58021        -8.75558
   C      -11.86062        -1.21883        -7.41962
   C      -12.44958        -0.06592        -6.92595
   C      -12.43466         0.25802        -5.57742
   C      -12.98250         1.40165        -4.96388
   C      -12.78326         1.46096        -3.60999
   C      -12.06987         0.36423        -3.09872
   S      -11.66530        -0.75495        -4.38024
   C      -11.66530         0.10031        -1.79649
   C      -11.84861         0.86932        -0.63070
   C      -11.28781         0.31260         0.48465
   C      -10.64108        -0.92128         0.25242
   S      -10.77548        -1.35369        -1.43963
   C       -9.98109        -1.71524         1.16546
   C       -9.38299        -2.93516         0.83365
   O       -9.46785        -3.37425        -0.46847
   C       -8.84062        -4.55571        -0.50695
   C       -8.51710        -5.59736        -1.38050
   C       -8.81518        -5.73003        -2.83078
   O       -8.48954        -6.70877        -3.47563
   N       -9.47186        -4.67732        -3.34544
   C       -7.82527        -6.51901        -0.57000
   O       -7.71914        -6.07688         0.72664
   C       -8.34006        -4.88718         0.76595
   C       -8.68232        -3.85541         1.62971
   C       -7.30105        -7.77041        -0.94619
   C       -6.63147        -8.59073        -0.08918
   C       -6.14475        -9.87457        -0.41332
   S       -5.24871       -10.77481         0.81241
   C       -5.08698       -12.10789        -0.25886
   N       -4.51382       -13.28894        -0.09853
   C       -4.64385       -14.03214        -1.17303
   S       -5.52782       -13.23760        -2.51319
   C       -5.70398       -11.84918        -1.50337
   C       -6.29067       -10.59521        -1.58981
   C       -4.14180       -15.33493        -1.25115
   C       -4.26930       -16.22311        -2.28869
   C       -3.75425       -17.54742        -2.29851
   C       -4.03309       -18.24972        -3.42711
   C       -4.78568       -17.52233        -4.38181
   S       -5.11449       -15.90249        -3.78644
   C       -5.23920       -17.95052        -5.60726
   C       -5.04596       -19.23291        -6.19820
   C       -5.61721       -19.37599        -7.41342
   C       -6.31190       -18.21017        -7.88208
   S       -6.17885       -16.92655        -6.66779
   C       -6.97225       -18.05807        -9.03754
   H      -12.79390        -0.25144       -12.62634
   H      -10.36897        -4.49168       -11.52078
   H      -12.47388        -1.06512       -15.29326
   H      -11.40304        -1.88133        -6.69432
   H      -12.93019         0.61829        -7.60956
   H      -13.50314         2.14905        -5.53564
   H      -13.12945         2.26203        -2.98150
   H      -12.37818         1.80497        -0.63912
   H      -11.32004         0.75269         1.46570
   H       -9.91820        -1.39243         2.19290
   H       -9.72002        -3.88089        -2.78501
   H       -9.70330        -4.65165        -4.33338
   H       -8.47742        -3.75128         2.67438
   H       -7.47802        -8.03470        -1.97792
   H       -6.45816        -8.25406         0.92437
   H       -6.80802       -10.21998        -2.45257
   H       -3.60768       -15.66550        -0.37076
   H       -3.19809       -17.93149        -1.46183
   H       -3.72508       -19.26533        -3.59885
   H       -4.48863       -20.00260        -5.69466
   H       -5.57988       -20.26953        -8.01089
   H       -7.02947       -18.86353        -9.74838
   H       -7.46063       -17.13529        -9.29181
*
