# ORCA input file
# SCF done       -177.248602402740          0.000738288379
! CAM-B3LYP def2-SVP def2/J RIJCOSX Grid4 TightSCF
%maxcore 5000
%tddft
    Mode sTDDFT
    Ethresh 5.0
    maxcore 5000
end

%pal
  nprocs 6
  end
* xyz 0 1
   C       -5.97711         1.43572         3.30145
   C       -5.94136         2.08009         4.50949
   C       -5.20681         1.62196         5.62067
   N       -4.61926         1.28740         6.54863
   C       -6.56976         3.32004         4.74315
   N       -7.05407         4.33690         4.96396
   C       -5.25548         0.21719         2.95460
   C       -5.36477         0.00135         1.55554
   C       -4.76830        -1.06511         0.92684
   C       -4.05270        -1.97095         1.71718
   C       -3.98193        -1.76563         3.11548
   C       -4.56461        -0.67502         3.74964
   S       -3.08032        -3.02126         3.90364
   C       -2.78494        -3.77983         2.36287
   C       -3.34949        -3.13777         1.31266
  Br       -1.74870        -5.33808         2.28630
   C       -6.23139         1.03760         0.98706
   O       -6.57577         1.17197        -0.18697
   C       -6.67089         1.86599         2.10933
   C       -7.68236         2.78117         1.98628
   N       -8.24059         3.03663         0.79373
   C       -9.41269         3.69729         0.59025
   S      -10.48367         4.02757         1.91794
   C      -11.61187         4.72713         0.80550
   N      -12.82276         5.21697         1.31628
   O      -13.60994         5.70337         0.52697
   O      -12.99436         5.11014         2.51687
   C      -11.18206         4.71640        -0.49299
   C       -9.90875         4.13039        -0.64556
   C       -9.16527         4.05480        -1.87460
   C       -9.51139         4.67239        -3.02156
   C       -8.62192         4.72261        -4.14208
   C       -8.71958         5.53853        -5.20695
   C       -9.87564         6.44285        -5.49066
   C       -7.49406         5.73895        -6.07406
   N       -6.62751         6.70762        -5.41429
   C       -6.07462         6.36230        -4.22911
   C       -5.79961         7.20808        -3.20461
   C       -5.38725         6.77093        -1.91908
   C       -5.17728         7.72081        -0.88368
   C       -4.87995         7.33804         0.47229
   N       -4.68700         8.28063         1.40367
   C       -4.76257         9.54730         1.06669
   C       -5.06111         9.92837        -0.28037
   N       -5.26623         9.02078        -1.20467
   C       -5.14000        11.29756        -0.63448
   N       -5.20071        12.41172        -0.89546
   C       -4.54034        10.54022         2.05121
   N       -4.36161        11.37286         2.81813
   C       -4.74748         5.97435         0.86413
   C       -4.96150         5.03186        -0.16989
   C       -5.26595         5.41595        -1.52695
   N       -5.45191         4.34147        -2.30033
   S       -5.28296         3.00325        -1.42685
   N       -4.97089         3.70978        -0.01786
   C       -4.42319         5.67788         2.20077
   C       -3.92494         4.53268         2.77211
   C       -3.56205         4.44756         4.14329
   C       -2.90827         3.30741         4.49193
   C       -2.70697         2.42410         3.40554
   S       -3.46029         3.05414         1.95130
   C       -2.00863         1.23768         3.39638
   C       -1.43663         0.55655         4.50418
   C       -0.76647        -0.57201         4.17799
   C       -0.74753        -0.86577         2.77396
   S       -1.66473         0.38054         1.90784
   C       -0.15695        -1.90026         2.15867
   H       -4.85353        -1.20228        -0.13939
   H       -4.47768        -0.55605         4.81671
   H       -3.26847        -3.46880         0.29352
   H       -8.09475         3.30070         2.84202
   H       -7.79873         2.53561         0.00870
   H      -11.78035         5.11414        -1.29143
   H       -8.22529         3.51993        -1.84170
   H      -10.43101         5.23383        -3.07607
   H       -7.73808         4.10625        -4.04388
   H       -9.68883         7.44173        -5.09230
   H      -10.79428         6.07016        -5.04830
   H      -10.02488         6.53685        -6.56506
   H       -7.75107         6.12071        -7.06286
   H       -6.93682         4.80577        -6.18286
   H       -6.92124         7.67293        -5.49742
   H       -5.85758         5.31173        -4.11280
   H       -5.95882         8.27205        -3.30930
   H       -4.50618         6.52618         2.86971
   H       -3.78527         5.25112         4.82267
   H       -2.54663         3.09383         5.48134
   H       -1.55960         0.92463         5.50697
   H       -0.27214        -1.21953         4.87991
   H        0.39535        -2.63178         2.72203
   H       -0.20190        -2.02566         1.09228
*
