# ORCA input file
# SCF done       -127.927700225833          0.000295754933
! CAM-B3LYP def2-SVP def2/J RIJCOSX Grid4 TightSCF
%maxcore 5000
%tddft
    Mode sTDDFT
    Ethresh 5.0
    maxcore 5000
end

%pal
  nprocs 6
  end
* xyz 0 1
   C       12.49652        -6.02485         5.00692
   C       11.16022        -6.07713         5.07841
   C       10.34356        -5.99987         6.25795
   C        9.01773        -6.08278         6.02330
   C        8.66833        -6.23174         4.64795
   S       10.11524        -6.26018         3.65914
   C        7.41442        -6.34263         4.10813
   C        6.17669        -6.33248         4.80654
   C        5.09909        -6.46118         3.99688
   C        5.42014        -6.57672         2.61231
   S        7.14896        -6.52323         2.36819
   C        4.55124        -6.70333         1.57215
   C        5.03867        -6.78476         0.23322
   N        6.37297        -6.75829         0.09098
   C        6.86254        -6.81422        -1.13127
   C        6.04230        -6.89135        -2.24175
   C        4.65500        -6.91762        -2.00974
   N        4.16910        -6.86946        -0.77191
   C        3.71920        -6.98594        -3.10885
   C        2.38679        -7.05466        -2.92407
   C        1.44121        -7.09614        -3.98512
   S       -0.29045        -7.22882        -3.64049
   C       -0.77791        -7.20159        -5.34209
   C        0.37821        -7.09558        -6.07550
   C        1.58076        -7.05164        -5.34150
   C        2.32809        -6.97068        -6.65504
   N        1.00327        -6.90143        -7.31203
   C       -2.14077        -7.28762        -5.72649
   C       -2.55598        -7.19567        -7.00536
   C       -3.94298        -7.28514        -7.39464
   N       -4.86443        -7.51228        -6.44891
   C       -6.12000        -7.58905        -6.84832
   C       -6.49667        -7.44209        -8.17205
   C       -5.46818        -7.20055        -9.09699
   N       -4.19878        -7.13026        -8.68937
   C       -5.74102        -7.01825       -10.49963
   C       -4.76431        -6.76412       -11.40327
   C       -4.98380        -6.57169       -12.78279
   C       -3.99356        -6.30552       -13.68709
   C       -4.14783        -6.09683       -15.08550
   C       -2.99081        -5.84309       -15.74645
   C       -1.84075        -5.83321       -14.91408
   S       -2.29559        -6.16625       -13.25266
   C       -0.53933        -5.60041       -15.28370
   C       -0.04900        -5.31451       -16.59016
   C        1.28566        -5.12029       -16.65516
   C        1.96499        -5.23828       -15.39594
   S        0.78262        -5.61606       -14.13235
   C        3.27487        -5.09499       -15.15534
   H       13.09126        -5.91337         5.89650
   H       13.01484        -6.09292         4.06829
   H       10.79277        -5.88559         7.22883
   H        8.26252        -6.04285         6.78833
   H        6.11962        -6.23040         5.87635
   H        4.07611        -6.47577         4.33065
   H        3.48578        -6.73128         1.73064
   H        7.94223        -6.79314        -1.21245
   H        6.44273        -6.93060        -3.24175
   H        4.13736        -6.97449        -4.10601
   H        2.00506        -7.07429        -1.91368
   H        2.91593        -7.85781        -6.89730
   H        2.91731        -6.06765        -6.81626
   H        0.77779        -7.44266        -8.13366
   H       -2.87425        -7.42854        -4.94570
   H       -1.85835        -7.03062        -7.81289
   H       -6.85018        -7.77590        -6.06930
   H       -7.52745        -7.50688        -8.48164
   H       -6.77551        -7.08764       -10.80914
   H       -3.74678        -6.70177       -11.03985
   H       -5.99838        -6.63415       -13.15564
   H       -5.11771        -6.14222       -15.54933
   H       -2.92534        -5.66152       -16.80437
   H       -0.71085        -5.26251       -17.43645
   H        1.83246        -4.89322       -17.55317
   H        3.95764        -4.86389       -15.95378
   H        3.68370        -5.20303       -14.16760
*
