# ORCA input file
# SCF done       -188.362440252883          0.000967213706
! CAM-B3LYP def2-SVP def2/J RIJCOSX Grid4 TightSCF
%maxcore 5000
%tddft
    Mode sTDDFT
    Ethresh 5.0
    maxcore 5000
end

%pal
  nprocs 6
  end
* xyz 0 1
   C        3.28742        -1.43113         3.59269
   O        3.67703        -2.53913         3.29478
   C        2.84814        -0.94090         4.89692
   C        2.10908         0.23109         4.77063
   C        1.62227         0.70278         6.00618
   C        2.00249        -0.11976         7.02318
   S        2.93917        -1.47741         6.51403
   C        2.05005         0.61573         3.37881
   C        1.33085         1.66746         2.87897
   C        0.55068         2.49512         3.71452
   N       -0.08942         3.17997         4.37599
   C        1.24758         2.02933         1.51973
   N        1.13926         2.37312         0.42968
   C        2.90669        -0.31716         2.65545
   C        3.30327        -0.21627         1.36462
   C        4.37262        -0.95503         0.78438
   C        4.51909        -1.28214        -0.63459
   N        5.64359        -1.86937        -0.93372
   C        6.33534        -1.95498         0.23447
   C        5.54658        -1.40616         1.34683
   C        6.33992        -1.38809         2.55058
   S        5.95790        -0.62113         3.96239
   C        7.57389        -2.02317         2.18054
   C        7.56072        -2.32161         0.73781
   N        8.75399        -2.84136         0.34252
   C        9.49646        -2.86562         1.41493
   C        8.83585        -2.37452         2.62120
   C        9.37886        -2.39563         3.94878
   C        8.50731        -2.51917         5.01744
   C        8.99953        -2.59690         6.32593
   C        8.35484        -2.75714         7.55586
   C        6.91154        -2.84814         7.88328
   C        6.37324        -1.42793         8.21673
   N        6.84813        -1.00131         9.51709
   C        6.02611        -3.48696         6.80338
   N        4.76816        -3.89873         7.40510
   C        9.38863        -2.73725         8.56440
   C        9.30541        -2.82754         9.90524
   C       10.52592        -2.78202        10.75928
   C       11.80713        -2.61923        10.01163
   C       11.86941        -2.53893         8.66828
   C       10.68387        -2.58648         7.89864
   C       10.43726        -2.50680         6.53739
   C       11.30317        -2.37432         5.43072
   C       10.78748        -2.33540         4.17227
   C       10.31093        -1.74854        11.83820
   C       11.02287        -0.62477        11.95552
   C       10.84470         0.34191        12.99653
   C        9.81635         0.38114        14.03917
   N        9.92673         1.38034        14.87001
   C       11.02244         2.07777        14.45961
   C       11.61621         1.44631        13.26710
   C       12.78166         2.17970        12.84472
   S       13.78796         1.85134        11.58888
   C       12.88444         3.25238        13.80150
   C       11.78995         3.16864        14.78256
   N       11.89379         4.17068        15.69848
   C       12.92425         4.87598        15.33386
   C       13.61393         4.36760        14.14134
   C       14.81035         4.87944        13.56643
   C       15.22833         6.16704        13.55292
   C       16.66837         6.49277        13.28076
   O       17.50981         5.74113        12.85155
   C       16.78807         7.88097        13.71303
   C       15.55483         8.40445        14.09175
   C       14.53091         7.40109        13.88266
   C       13.18714         7.64609        13.79849
   C       12.64693         8.91230        14.10825
   N       12.20122         9.93433        14.37636
   C       12.23950         6.72413        13.30728
   N       11.44467         6.03987        12.84142
   C       15.63831         9.74649        14.50749
   C       16.92433        10.19609        14.44054
   S       18.04996         9.02343        13.86612
   H        1.03141         1.58968         6.14033
   H        1.77714        -0.00785         8.06582
   H        2.83657         0.51564         0.71653
   H        3.77741        -1.09051        -1.39018
   H       10.49367        -3.26806         1.37137
   H        7.45190        -2.58197         4.82397
   H        6.79980        -3.44591         8.79464
   H        5.27908        -1.49085         8.15568
   H        6.72694        -0.73233         7.45342
   H        6.24355        -1.34646        10.25349
   H        6.90081         0.00596         9.58794
   H        6.57395        -4.31776         6.33049
   H        5.78281        -2.74849         6.03672
   H        4.91095        -4.69032         8.02434
   H        4.11520        -4.18507         6.68472
   H        8.35632        -2.91490        10.41123
   H       10.57552        -3.75302        11.28463
   H       12.70314        -2.58388        10.61237
   H       12.81956        -2.43056         8.16669
   H       12.36839        -2.30567         5.59354
   H       11.44042        -2.22860         3.31960
   H        9.51127        -1.97163        12.53024
   H       11.81567        -0.40381        11.25344
   H        9.00959        -0.32149        14.15203
   H       13.24321         5.71965        15.92161
   H       15.49325         4.14923        13.14217
   H       14.81002        10.34364        14.84127
   H       17.28193        11.17437        14.69650
*
