# ORCA input file
# SCF done       -198.316620582579          0.000439288518
! CAM-B3LYP def2-SVP def2/J RIJCOSX Grid4 TightSCF
%maxcore 5000
%tddft
    Mode sTDDFT
    Ethresh 5.0
    maxcore 5000
end

%pal
  nprocs 6
  end
* xyz 0 1
   C        6.42793        -2.44169        -3.16836
   S        6.63642        -0.82630        -2.63553
   C        8.08511        -0.65969        -3.60134
   C        8.35202        -1.82844        -4.29092
   C        7.40175        -2.84370        -4.03521
   C        7.46699        -4.19432        -4.67745
   C        8.86378        -4.45631        -5.23817
   C        9.35898        -3.26663        -6.08139
   N        8.50411        -2.91302        -7.20134
   C        9.53172        -2.03369        -5.18796
   C        8.84182         0.54245        -3.60190
   C        8.52799         1.63606        -2.86903
   C        9.28261         2.84433        -2.84731
   C       10.20257         3.26894        -3.76829
   C       10.61540         4.60505        -3.42691
   C       11.51010         5.38033        -4.16691
   N       12.20941         6.03857        -4.79975
   C        9.92865         5.01801        -2.30789
   C        9.06789         3.95457        -1.89407
   C        8.23889         3.95619        -0.78930
   C        7.71192         5.14463        -0.06884
   C        7.17101         4.70001         1.10833
   C        7.28515         3.27064         1.15354
   C        7.88213         2.82302        -0.00815
   C        6.85922         2.47215         2.22150
   N        6.50621         1.82579         3.10294
   C        7.64600         6.48463        -0.54182
   C        7.74318         6.85947        -1.83956
   C        7.88728         8.20093        -2.33216
   C        8.47382         8.36574        -3.57413
   C        8.77785         9.64951        -4.04779
   C        9.44344        10.06131        -5.20065
   C       10.08524         9.16848        -6.20250
   C        9.52805         9.36858        -7.62463
   N        9.71293         8.14183        -8.36984
   C       11.61898         9.33234        -6.16856
   N       12.25399         8.26922        -6.92967
   C        9.45976        11.50333        -5.17301
   C        9.94018        12.41385        -6.04303
   C        9.87742        13.87372        -5.76416
   C        9.15500        14.24122        -4.50921
   C        8.66176        13.32370        -3.65605
   C        8.79024        11.94373        -3.93886
   C        8.38794        10.80792        -3.26046
   C        7.74048        10.61504        -2.01889
   C        7.52255         9.35333        -1.56477
   C       11.30770        14.36436        -5.67998
   C       11.83235        15.27012        -6.50055
   C       13.22425        15.67163        -6.47514
   C       14.26839        14.81341        -6.33786
   C       15.50323        15.54440        -6.54589
   C       16.78672        14.98901        -6.52583
   N       17.84908        14.55235        -6.49835
   C       15.20111        16.85651        -6.78095
   C       13.77530        17.02553        -6.67480
   C       13.08148        18.21151        -6.61497
   C       13.62638        19.59285        -6.73224
   C       12.56110        20.43939        -6.85838
   C       11.34590        19.67692        -6.73422
   C       11.65870        18.35223        -6.55523
   C       10.05587        20.22056        -6.76417
   N        8.99649        20.66360        -6.79043
   C       14.99670        19.97354        -6.62174
   C       15.49294        21.13678        -7.11063
   C       16.82704        21.61885        -7.03958
   S       17.16806        23.07998        -7.92931
   C       18.83807        23.05439        -7.46224
   C       19.11005        21.95546        -6.66472
   C       17.97839        21.15484        -6.41319
   C       18.04790        19.92568        -5.55963
   C       19.37249        19.82270        -4.80487
   C       20.56361        20.14281        -5.72202
   N       20.67605        19.30829        -6.90403
   C       20.47269        21.60964        -6.15212
   C       19.67007        24.11864        -7.95422
   C       20.87031        24.48846        -7.50964
   H        5.59337        -3.01046        -2.80812
   H        6.72654        -4.24488        -5.48381
   H        7.19895        -4.96618        -3.95263
   H        8.85007        -5.36276        -5.84800
   H        9.56506        -4.61442        -4.41669
   H       10.33593        -3.52739        -6.50878
   H        7.60876        -2.57230        -6.86859
   H        8.33689        -3.71888        -7.79336
   H        9.67650        -1.16291        -5.83016
   H       10.43062        -2.15282        -4.57532
   H        9.73364         0.53903        -4.21226
   H        7.63536         1.60179        -2.25980
   H       10.55439         2.73534        -4.63066
   H       10.08479         5.93819        -1.77889
   H        6.68992         5.29577         1.86159
   H        8.16932         1.80752        -0.20125
   H        7.48646         7.23257         0.22510
   H        7.80795         6.08846        -2.59551
   H        8.74366         7.49814        -4.15920
   H        9.86691         8.13058        -5.93444
   H       10.01624        10.24125        -8.08974
   H        8.45324         9.57775        -7.56877
   H       10.69900         7.89184        -8.33988
   H        9.42645         8.25491        -9.33549
   H       11.93889         9.35717        -5.11253
   H       11.89575        10.28971        -6.62099
   H       12.13732         7.38688        -6.43380
   H       13.25320         8.43802        -6.99031
   H       10.42807        12.12801        -6.96337
   H        9.40277        14.37840        -6.61720
   H        9.06938        15.29812        -4.30663
   H        8.15393        13.62822        -2.75238
   H        7.43446        11.47276        -1.43797
   H        7.03350         9.20189        -0.61467
   H       11.89229        13.93386        -4.87976
   H       11.22528        15.70217        -7.28699
   H       14.21544        13.75351        -6.17266
   H       15.91007        17.61451        -7.04324
   H       12.58925        21.50830        -6.95181
   H       10.95019        17.56496        -6.39874
   H       15.63837        19.29998        -6.08352
   H       14.82282        21.77659        -7.67092
   H       17.92419        19.04034        -6.19451
   H       17.22644        19.93130        -4.83869
   H       19.47415        18.81598        -4.39330
   H       19.37783        20.52843        -3.97205
   H       21.49173        20.00185        -5.15364
   H       19.88085        19.44889        -7.51732
   H       20.71060        18.32724        -6.65076
   H       21.21240        21.79038        -6.93428
   H       20.71289        22.24732        -5.29668
   H       19.22029        24.68135        -8.76380
   H       21.36528        24.01676        -6.68194
   H       21.38901        25.31251        -7.96817
*
