# ORCA input file
# SCF done       -161.380387299147          0.000864200462
! CAM-B3LYP def2-SVP def2/J RIJCOSX Grid4 TightSCF
%maxcore 5000
%tddft
    Mode sTDDFT
    Ethresh 5.0
    maxcore 5000
end

%pal
  nprocs 6
  end
* xyz 0 1
   C       -2.58102         6.67065        -1.95711
   S       -1.21918         6.58439        -0.92181
   C       -1.09096         4.86031        -1.12691
   C       -2.11343         4.40282        -1.94196
   C       -2.95676         5.44013        -2.41662
   O       -4.00525         5.20309        -3.23683
   O       -2.37784         3.09916        -2.30127
   C       -2.84260         2.27174        -1.24653
   C       -0.03400         4.10697        -0.54921
   C        0.37995         2.77552        -1.01034
   N        1.36768         2.26014        -0.33874
   C        1.69083         3.19044         0.60500
   C        0.84731         4.38444         0.47370
   C        1.18225         5.33709         1.50219
   S        0.44235         6.78357         1.77595
   C        2.24005         4.70492         2.25498
   C        2.52134         3.37961         1.67930
   N        3.47319         2.72515         2.40264
   C        3.75972         3.52228         3.39108
   C        3.02897         4.79103         3.38536
   C        3.19705         5.82375         4.36893
   C        3.62873         5.50254         5.64254
   C        3.74843         6.50898         6.61428
   C        4.11934         6.43849         7.95621
   C        4.49545         5.19559         8.68466
   C        5.80386         5.34164         9.47627
   N        6.79976         6.02152         8.66463
   C        3.33952         4.72861         9.59605
   N        2.25482         4.24198         8.76679
   C        4.00824         7.77718         8.48650
   C        4.16576         8.27228         9.72882
   C        3.93062         9.70703        10.04085
   C        3.60239        10.56131         8.85432
   C        3.41896        10.04898         7.62294
   C        3.59151         8.66505         7.39060
   C        3.42946         7.88326         6.26189
   C        3.02145         8.18543         4.94370
   C        2.90960         7.18478         4.03230
   C        2.77401         9.86783        11.00228
   C        1.77072         8.98679        11.07246
   C        0.62812         9.08463        11.92462
   C        0.24794        10.14852        12.85606
   N       -0.87206         9.93696        13.48809
   C       -1.32402         8.72834        13.03673
   C       -0.38844         8.16871        12.05394
   C       -0.86523         6.89566        11.57721
   S       -0.10828         5.91259        10.49589
   C       -2.11087         6.70197        12.26702
   C       -2.36438         7.84567        13.16410
   N       -3.54810         7.68586        13.82556
   C       -4.03538         6.55782        13.40487
   C       -3.19641         5.86626        12.41307
   C       -3.52464         4.63365        11.79840
   S       -2.46775         3.86038        10.64139
   C       -3.56336         2.55671        10.42342
   C       -4.68268         2.69341        11.18824
   C       -4.66963         3.87523        11.97893
   O       -5.68862         4.19294        12.80615
   O       -5.77186         1.87599        11.28808
   C       -5.76849         0.72306        10.47975
   H       -3.05078         7.61087        -2.15970
   H       -3.99919         4.25681        -3.44494
   H       -2.11724         2.20988        -0.43077
   H       -2.98557         1.28496        -1.68127
   H       -3.79513         2.64106        -0.85104
   H       -0.04354         2.25772        -1.85240
   H        4.51686         3.24493         4.10367
   H        3.81694         4.47457         5.91180
   H        4.63920         4.40430         7.94239
   H        6.11716         4.33570         9.80636
   H        5.64557         5.94290        10.37418
   H        6.96353         5.50586         7.80600
   H        7.68123         6.08165         9.16240
   H        3.04832         5.55111        10.26814
   H        3.68957         3.89417        10.21103
   H        1.84791         5.01012         8.24187
   H        1.51661         3.85383         9.34337
   H        4.42840         7.64860        10.57019
   H        4.83149        10.10208        10.53295
   H        3.47229        11.61498         9.04873
   H        3.14941        10.68887         6.79527
   H        2.79831         9.20614         4.67188
   H        2.59814         7.40011         3.02334
   H        2.77039        10.77086        11.59514
   H        1.79169         8.10045        10.45056
   H        0.80623        11.04982        13.03969
   H       -4.97499         6.18701        13.77092
   H       -3.31034         1.77191         9.74002
   H       -6.35603         3.49583        12.73085
   H       -6.70596         0.21045        10.68603
   H       -4.92833         0.06881        10.73035
   H       -5.71836         0.98631         9.41912
*
