# ORCA input file
# SCF done       -176.291786937479          0.000436751930
! CAM-B3LYP def2-SVP def2/J RIJCOSX Grid4 TightSCF
%maxcore 5000
%tddft
    Mode sTDDFT
    Ethresh 5.0
    maxcore 5000
end

%pal
  nprocs 6
  end
* xyz 0 1
   C       -4.87056        -9.46904         1.68378
   S       -4.95897       -10.54548         0.33099
   C       -3.25670       -10.37963         0.06008
   O       -2.62094       -11.01297        -0.93954
   C       -2.65650        -9.53320         0.97277
   C       -3.61740        -9.02100         1.89745
   C       -1.25741        -9.23262         0.91086
   C       -0.60258        -8.37973         1.72858
   C        0.78376        -8.05713         1.64291
   C        1.56177        -7.65496         2.69128
   C        2.93468        -7.62204         2.25884
   C        4.01134        -7.22836         3.06207
   N        4.89019        -6.90562         3.72766
   C        3.00886        -8.02760         0.94503
   C        1.67959        -8.24270         0.47387
   C        1.30560        -8.37210        -0.84480
   C        2.15683        -8.81860        -1.96719
   C        1.44102        -8.63501        -3.11902
   C        0.15752        -8.07349        -2.78172
   C        0.06487        -7.94377        -1.41734
   C       -0.83059        -7.73595        -3.71342
   N       -1.64251        -7.47586        -4.48347
   C        3.41961        -9.46562        -1.81919
   C        4.32203        -9.60956        -2.81643
   C        5.61209       -10.23329        -2.71390
   C        6.50015       -10.09424        -3.76700
   C        7.79291       -10.63666        -3.69144
   C        8.86999       -10.60724        -4.57726
   C        8.94991        -9.97947        -5.92684
   C        7.90434       -10.57288        -6.89219
   N        8.37853       -10.42779        -8.25442
   C        8.82850        -8.44758        -5.82238
   N        9.09786        -7.82134        -7.10807
   C        9.95241       -11.31833        -3.94251
   C       11.20672       -11.58881        -4.35728
   C       12.12024       -12.41836        -3.53330
   C       11.64991       -12.66236        -2.13260
   C       10.38564       -12.40810        -1.73797
   C        9.49110       -11.76539        -2.62119
   C        8.17543       -11.36023        -2.48776
   C        7.24090       -11.53224        -1.44401
   C        6.00498       -10.98102        -1.55694
   C       12.14442       -13.82621        -4.10166
   C       13.18958       -14.65064        -3.99611
   C       13.20108       -16.03185        -4.39711
   C       14.30463       -16.69968        -4.83878
   C       13.90216       -18.00972        -5.29132
   C       14.77731       -18.98584        -5.77846
   N       15.50074       -19.77892        -6.18811
   C       12.53867       -18.12811        -5.16000
   C       12.04189       -16.93423        -4.55140
   C       10.76549       -16.75062        -4.05825
   C        9.52877       -17.43455        -4.50409
   C        8.51548       -17.02095        -3.68011
   C        9.05491       -16.10547        -2.71056
   C       10.39826       -15.92833        -2.95278
   C        8.32549       -15.46015        -1.70647
   N        7.73366       -14.90485        -0.89288
   C        9.43445       -18.23365        -5.67798
   C        8.36992       -19.00853        -6.00040
   C        8.28775       -19.81434        -7.16710
   S        6.84049       -20.76848        -7.44239
   C        7.49393       -21.40149        -8.91427
   O        6.81618       -22.26992        -9.68188
   C        8.75901       -20.91438        -9.18652
   C        9.18728       -20.01707        -8.18370
   C        9.49535       -21.31941       -10.36744
   C       10.72255       -20.92415       -10.68474
   H       -5.76785        -9.24677         2.22492
   H       -3.24063       -11.50202        -1.49292
   H       -3.36683        -8.34351         2.69252
   H       -0.72117        -9.75345         0.13018
   H       -1.12257        -7.94267         2.57140
   H        1.23707        -7.44132         3.69250
   H        3.89654        -8.01830         0.34211
   H        1.73826        -8.89237        -4.11812
   H       -0.74632        -7.49168        -0.88096
   H        3.64090        -9.84998        -0.83445
   H        4.09495        -9.17044        -3.77977
   H        6.19358        -9.54802        -4.64653
   H        9.92768       -10.20521        -6.36397
   H        6.92992       -10.09242        -6.71383
   H        7.79306       -11.64260        -6.68407
   H        8.50061        -9.43795        -8.45110
   H        7.70257       -10.80626        -8.90862
   H        9.50713        -8.10234        -5.02316
   H        7.81170        -8.17723        -5.52907
   H       10.06840        -7.96677        -7.36913
   H        8.93978        -6.82090        -7.05133
   H       11.57064       -11.28297        -5.32849
   H       13.13615       -12.00928        -3.54152
   H       12.36012       -13.13810        -1.47309
   H       10.05050       -12.66128        -0.74317
   H        7.51382       -12.11320        -0.57682
   H        5.28859       -11.12207        -0.76344
   H       11.20543       -14.16361        -4.51332
   H       14.13791       -14.27049        -3.63368
   H       15.31104       -16.32692        -4.88501
   H       11.97447       -19.02444        -5.33314
   H        7.47706       -17.28582        -3.74142
   H       11.07245       -15.35655        -2.34661
   H       10.27460       -18.19984        -6.35489
   H        7.52219       -19.05586        -5.33125
   H        5.95830       -22.48203        -9.29637
   H       10.14467       -19.53184        -8.21315
   H        8.95880       -22.00326       -11.01084
   H       11.29155       -20.24794       -10.07039
   H       11.20487       -21.27070       -11.58167
*
