# ORCA input file
# SCF done       -182.551382531457          0.000613659872
! CAM-B3LYP def2-SVP def2/J RIJCOSX Grid4 TightSCF
%maxcore 5000
%tddft
    Mode sTDDFT
    Ethresh 5.0
    maxcore 5000
end

%pal
  nprocs 6
  end
* xyz 0 1
   C        4.47808        -6.98675        -9.00160
   S        5.87816        -6.67817       -10.00816
   C        4.93175        -6.92923       -11.51004
   O        5.37320        -6.79626       -12.61206
   N        3.66298        -7.29977       -11.17161
   C        3.33259        -7.39948        -9.83141
   O        2.26837        -7.82336        -9.45235
   C        2.67933        -7.60294       -12.18922
   C        4.51950        -6.93042        -7.65292
   C        3.39869        -7.03142        -6.77448
   C        3.43595        -7.70137        -5.47087
   N        2.30396        -7.68718        -4.82901
   C        1.44661        -6.98313        -5.61858
   C        2.11483        -6.54592        -6.85447
   C        1.21807        -5.72815        -7.63530
   S        1.59647        -4.92617        -9.02027
   C       -0.02061        -5.73437        -6.89589
   C        0.15595        -6.52599        -5.66199
   N       -1.00352        -6.58160        -4.94965
   C       -1.87299        -5.92105        -5.65672
   C       -1.34479        -5.34593        -6.89750
   C       -2.12524        -4.54341        -7.79902
   C       -3.49778        -4.70410        -7.85745
   C       -4.25904        -3.91235        -8.73058
   C       -5.63241        -3.88276        -8.97325
   C       -6.65150        -4.76653        -8.34992
   C       -7.55698        -3.98451        -7.37507
   N       -6.79517        -3.60304        -6.20016
   C       -7.50409        -5.51525        -9.39245
   N       -8.31156        -6.51834        -8.72173
   C       -5.86095        -2.82446        -9.92851
   C       -6.98999        -2.30984       -10.45509
   C       -6.95755        -1.20878       -11.45568
   C       -5.59883        -0.65653       -11.73975
   C       -4.47798        -1.16454       -11.19108
   C       -4.55569        -2.24151       -10.27933
   C       -3.59264        -2.91013        -9.54489
   C       -2.18994        -2.77006        -9.46787
   C       -1.48385        -3.56696        -8.62373
   C       -7.51318        -1.75313       -12.75136
   C       -8.59939        -1.25978       -13.35384
   C       -9.14358        -1.73878       -14.58700
   C       -8.64991        -2.81637       -15.44578
   N       -9.37321        -3.03361       -16.50932
   C      -10.39024        -2.12936       -16.45226
   C      -10.26269        -1.28883       -15.24727
   C      -11.34675        -0.34607       -15.18431
   S      -11.70910         0.69633       -13.96213
   C      -12.10327        -0.59827       -16.38248
   C      -11.51494        -1.72692       -17.12747
   N      -12.28438        -2.03699       -18.20695
   C      -13.29905        -1.22041       -18.16391
   C      -13.25852        -0.26829       -17.05234
   C      -14.25383         0.69578       -16.71471
   C      -13.96930         1.88191       -16.12451
   C      -14.88592         2.80647       -15.47678
   C      -16.25302         2.74964       -15.48742
   C      -17.09132         3.67847       -14.83393
   N      -17.82916         4.39735       -14.32761
   C      -17.01598         1.78216       -16.17527
   N      -17.69529         1.03042       -16.71527
   C      -14.07422         3.80905       -14.79431
   C      -12.72031         3.61431       -15.12558
   C      -12.59508         2.47958       -16.05348
   O      -11.64176         2.18810       -16.74084
   C      -11.73453         4.44000       -14.61963
   C      -12.10704         5.45929       -13.75949
   C      -13.44197         5.66443       -13.41192
   C      -14.43168         4.83513       -13.93508
   C      -13.81697         6.75723       -12.46240
   H        3.04526        -7.22898       -13.14282
   H        1.73990        -7.12053       -11.92156
   H        2.52160        -8.68083       -12.24830
   H        5.48450        -6.79630        -7.17844
   H        4.29835        -8.19595        -5.05905
   H       -2.87836        -5.79563        -5.29389
   H       -3.98455        -5.45158        -7.25030
   H       -6.13013        -5.52628        -7.75796
   H       -8.42362        -4.62606        -7.15465
   H       -7.91203        -3.06962        -7.85348
   H       -6.58639        -4.41784        -5.63305
   H       -7.31901        -2.95229        -5.62739
   H       -6.82981        -5.93326       -10.15894
   H       -8.18771        -4.82384        -9.88810
   H       -7.72395        -7.25465        -8.34446
   H       -8.96482        -6.94440        -9.36870
   H       -7.97115        -2.68649       -10.20496
   H       -7.62169        -0.40098       -11.12037
   H       -5.56119         0.16320       -12.44043
   H       -3.51038        -0.74541       -11.42475
   H       -1.69020        -2.02935       -10.07355
   H       -0.41352        -3.46642        -8.55009
   H       -6.95080        -2.57057       -13.17815
   H       -9.14348        -0.43675       -12.90671
   H       -7.76732        -3.40523       -15.26780
   H      -14.06857        -1.25678       -18.91537
   H      -15.27928         0.40685       -16.90757
   H      -10.70268         4.27777       -14.89047
   H      -11.35162         6.11183       -13.34631
   H      -15.46080         5.00339       -13.66064
   H      -13.09562         7.56986       -12.49617
   H      -13.83871         6.36678       -11.44435
   H      -14.80602         7.14652       -12.69089
*
