# ORCA input file
# SCF done       -203.050451650135          0.000475987392
! CAM-B3LYP def2-SVP def2/J RIJCOSX Grid4 TightSCF
%maxcore 5000
%tddft
    Mode sTDDFT
    Ethresh 5.0
    maxcore 5000
end

%pal
  nprocs 6
  end
* xyz 0 1
   C        9.26525         1.69317         5.90234
   C        8.95467         1.21684         7.14631
   F        9.71204         1.57199         8.19733
   C        7.86586         0.36314         7.37629
   C        7.08269        -0.00991         6.32009
   C        7.35737         0.45350         5.01640
   C        8.46803         1.32283         4.80222
   C        8.75247         1.81081         3.50530
   C        7.94987         1.44459         2.45819
   C        6.85169         0.55826         2.67762
   C        6.55370         0.07330         3.92098
   C        6.17535         0.30091         1.40247
   O        5.16776        -0.33515         1.19328
   C        7.01713         0.97195         0.36579
   C        7.96713         1.83342         1.05061
   C        8.59002         2.93052         0.52875
   C        9.45464         3.76465         1.27096
   N       10.16356         4.46643         1.83693
   C        8.35170         3.43235        -0.76924
   N        8.13043         3.93874        -1.77476
   C        6.85891         0.62943        -0.93137
   C        7.70336         0.94583        -2.03693
   N        9.01041         1.09622        -1.94027
   C        9.44697         1.32499        -3.19985
   C        8.33148         1.30830        -4.16313
   C        8.82233         1.56839        -5.52889
   O        8.19608         1.59095        -6.56315
   C       10.26860         1.77503        -5.31259
   C       10.60387         1.60239        -3.87668
   N       11.93152         1.79161        -3.67116
   C       12.42376         2.07371        -4.84914
   C       11.43864         2.08569        -5.91997
   C        7.20265         1.07194        -3.42742
   C        5.82811         0.96735        -3.77981
   C        5.35270         0.98621        -5.04287
   C        3.96093         0.76977        -5.28613
   C        3.23757         0.57127        -6.45379
   C        3.72413         0.52161        -7.84308
   O        3.25516        -0.16467        -8.70853
   O        4.78223         1.31850        -8.01801
   C        1.92410         0.27561        -5.98685
   N        1.89045         0.31679        -4.67396
   O        3.12559         0.62190        -4.24057
   C        0.78501        -0.11496        -6.77911
   N        0.49565         0.42032        -7.93352
   C       -0.53148        -0.31717        -8.43146
   C       -0.88499        -1.41638        -7.51243
   C       -1.98847        -2.22056        -8.06909
   O       -2.51444        -3.20460        -7.60248
   C       -2.27935        -1.52549        -9.33913
   C       -1.36001        -0.37145        -9.51627
   N       -1.63487         0.27862       -10.67721
   C       -2.63216        -0.37422       -11.20950
   C       -3.08989        -1.51135       -10.42312
   C       -0.07703        -1.26903        -6.41826
   C        0.03736        -1.99336        -5.19682
   C       -0.41693        -3.26053        -5.04378
   C       -0.34580        -4.04183        -3.86053
   C        0.40720        -3.96387        -2.72660
   C       -0.05867        -4.79166        -1.56738
   O       -0.89676        -5.66175        -1.60414
   C        0.68517        -4.29823        -0.39906
   C        0.56015        -4.66448         0.91019
   C        1.38682        -4.05089         1.87685
   C        2.31601        -3.05344         1.46176
   C        3.14132        -2.44245         2.42579
   C        3.03634        -2.82645         3.73242
   C        2.13067        -3.80410         4.16399
   C        1.31832        -4.40251         3.24074
   F        3.83632        -2.24832         4.65603
   C        2.42142        -2.69154         0.09807
   C        1.62611        -3.31718        -0.82521
   C        1.56042        -3.20686        -2.28338
   C        2.55991        -2.66670        -3.05248
   C        2.63835        -2.76859        -4.45449
   N        2.77258        -2.83226        -5.59297
   C        3.68816        -1.99826        -2.53955
   N        4.63198        -1.42978        -2.21387
   H       10.10915         2.35090         5.76471
   H        7.67125         0.02098         8.38031
   H        6.23804        -0.66586         6.46710
   H        9.60328         2.45955         3.37051
   H        5.71599        -0.59002         4.07354
   H        6.00739        -0.01013        -1.15333
   H       13.47592         2.26799        -4.96627
   H       11.64390         2.29714        -6.95059
   H        5.12921         0.83193        -2.96669
   H        5.99052         1.12573        -5.90338
   H        5.11155         1.25695        -8.92875
   H       -3.04700        -0.06098       -12.15210
   H       -3.89612        -2.16628       -10.68819
   H        0.49713        -1.45428        -4.37982
   H       -0.93891        -3.71951        -5.87418
   H       -1.07347        -4.85060        -3.81696
   H       -0.15619        -5.41783         1.20167
   H        3.84908        -1.68746         2.12208
   H        2.09237        -4.06459         5.20993
   H        0.61159        -5.15904         3.54666
   H        3.12906        -1.92278        -0.16829
*
