# ORCA input file
# SCF done       -211.847559922282          0.000342452955
! CAM-B3LYP def2-SVP def2/J RIJCOSX Grid4 TightSCF
%maxcore 5000
%tddft
    Mode sTDDFT
    Ethresh 5.0
    maxcore 5000
end

%pal
  nprocs 6
  end
* xyz 0 1
   C       -2.71612        -2.29437         6.43809
   C       -2.91373        -0.92943         6.59123
   C       -3.94066        -0.27562         5.92728
   C       -4.80806        -0.97070         5.09703
   C       -4.62003        -2.33248         4.93758
   C       -3.56756        -2.99928         5.60346
   C       -3.59130        -4.40897         5.22653
   C       -2.75950        -5.38279         5.72365
   C       -1.77764        -5.15551         6.70913
   N       -0.96162        -5.04823         7.51044
   C       -2.76985        -6.74370         5.35972
   N       -2.70627        -7.86644         5.12023
   C       -4.62494        -4.55774         4.22149
   C       -5.37372        -3.31776         4.17590
   C       -6.67611        -3.17209         3.76226
   C       -7.48002        -4.24510         3.33171
   N       -8.17817        -5.10369         3.02276
   C       -7.38927        -1.95986         3.81250
   N       -8.01630        -0.99755         3.81163
   C       -4.78827        -5.67699         3.43110
   C       -5.35514        -5.76317         2.15670
   S       -5.49309        -4.38719         1.09393
   C       -5.94818        -5.35922        -0.24920
   C       -5.94474        -6.72474         0.07195
   C       -5.67871        -6.94618         1.46004
   C       -5.76462        -8.24436         2.01449
   C       -5.72839        -8.47718         3.45614
   C       -5.11728        -9.49962         4.03830
   C       -5.95415        -9.29138         1.13571
   C       -6.03421        -9.08881        -0.24463
   C       -6.04293        -7.83508        -0.80958
   C       -6.06545        -7.70177        -2.30004
   C       -6.36389        -4.70013        -1.46571
   C       -7.54893        -5.05705        -2.06280
   C       -7.96003        -4.41683        -3.24970
   C       -9.06486        -4.61088        -4.06514
   C      -10.22624        -5.52809        -3.87659
   C       -9.80430        -7.00979        -3.85501
   N      -10.91561        -7.82697        -4.30279
   C      -11.01855        -5.14696        -2.61151
   N      -12.26961        -5.88880        -2.55215
   C       -8.89635        -3.73493        -5.20063
   C       -9.61554        -3.60446        -6.32973
   C       -9.18147        -2.69505        -7.43114
   C       -7.99882        -1.84155        -7.10025
   C       -7.28693        -1.98912        -5.96716
   C       -7.66641        -2.95397        -5.00395
   C       -7.10426        -3.37905        -3.81814
   C       -5.92692        -2.98969        -3.13672
   C       -5.57822        -3.62231        -1.98924
   C      -10.34713        -1.87101        -7.90344
   C      -11.08150        -2.19956        -8.97280
   C      -12.18827        -1.45000        -9.47931
   S      -12.33748         0.22698        -9.13347
   C      -13.65110         0.43304       -10.26207
   C      -14.00381        -0.80488       -10.84382
   C      -13.18563        -1.87900       -10.36628
   C      -13.42250        -3.21339       -10.79105
   C      -12.75576        -4.36126       -10.17961
   C      -12.32712        -5.42357       -10.84807
   C      -14.39693        -3.40902       -11.74453
   C      -15.19223        -2.35875       -12.20676
   C      -15.05700        -1.06513       -11.75182
   C      -16.03687        -0.02764       -12.19424
   C      -14.09430         1.71481       -10.61191
   C      -14.00902         2.88172        -9.88483
   C      -14.00669         4.20953       -10.47131
   C      -14.30476         4.55265       -11.76752
   C      -14.70128         3.65924       -12.78124
   N      -15.02739         2.98801       -13.65626
   C      -14.28312         5.87258       -12.26299
   N      -14.28883         6.91833       -12.73728
   C      -13.59654         5.13451        -9.42099
   C      -13.46237         4.41881        -8.20997
   C      -13.05776         5.05904        -7.05135
   C      -12.78921         6.41901        -7.10584
   C      -12.93060         7.12606        -8.29062
   C      -13.33494         6.49442        -9.45796
   C      -13.84850         3.03666        -8.45117
   C      -14.26039         2.14792        -7.48877
   C      -14.13601         2.36799        -6.10372
   N      -14.03787         2.47562        -4.96464
   C      -14.93788         0.94714        -7.77719
   N      -15.53420        -0.01445        -7.97566
   H       -1.91106        -2.78358         6.96101
   H       -2.25304        -0.37043         7.23635
   H       -4.06926         0.78833         6.05603
   H       -5.60040        -0.45249         4.58143
   H       -4.33137        -6.59504         3.77696
   H       -6.27989        -7.75726         4.04959
   H       -4.53043       -10.20559         3.47536
   H       -5.14617        -9.64367         5.10356
   H       -6.03285       -10.29462         1.52588
   H       -6.10449        -9.95274        -0.88976
   H       -5.64871        -8.60091        -2.74960
   H       -5.48424        -6.84294        -2.62684
   H       -7.07914        -7.58144        -2.67848
   H       -8.16735        -5.81366        -1.60690
   H      -10.89987        -5.41916        -4.73222
   H       -9.45179        -7.27115        -2.84377
   H       -8.97255        -7.15747        -4.55385
   H      -11.70629        -7.65384        -3.68658
   H      -10.67719        -8.81145        -4.24637
   H      -11.16420        -4.05337        -2.61061
   H      -10.43900        -5.40211        -1.72152
   H      -12.89524        -5.57498        -3.28806
   H      -12.73227        -5.72417        -1.66462
   H      -10.51458        -4.17749        -6.51077
   H       -8.89339        -3.35600        -8.26661
   H       -7.72662        -1.10729        -7.84297
   H       -6.41829        -1.37473        -5.78019
   H       -5.31609        -2.19561        -3.53951
   H       -4.68129        -3.34601        -1.45417
   H      -10.58894        -1.00298        -7.30602
   H      -10.83482        -3.09106        -9.53577
   H      -12.66458        -4.32348        -9.10102
   H      -12.38780        -5.48038       -11.92213
   H      -11.88094        -6.26564       -10.34751
   H      -14.60078        -4.41152       -12.08877
   H      -15.97620        -2.58215       -12.91533
   H      -16.35420         0.58316       -11.35054
   H      -16.91303        -0.50751       -12.62374
   H      -15.61480         0.62674       -12.95785
   H      -14.44406         1.80892       -11.62750
   H      -12.94062         4.51811        -6.12627
   H      -12.46639         6.93116        -6.21232
   H      -12.72132         8.18472        -8.30952
   H      -13.43734         7.06082       -10.36879
*
