# ORCA input file
# SCF done       -184.886138036556          0.000765901367
! CAM-B3LYP def2-SVP def2/J RIJCOSX Grid4 TightSCF
%maxcore 5000
%tddft
    Mode sTDDFT
    Ethresh 5.0
    maxcore 5000
end

%pal
  nprocs 6
  end
* xyz 0 1
   C       -4.02236         8.13575        -5.39674
   C       -3.37651         8.49886        -4.24192
   C       -3.12121         9.82065        -3.83546
   N       -2.90161        10.86643        -3.41240
   C       -2.82216         7.57674        -3.33517
   N       -2.31428         6.88920        -2.56604
   C       -4.33635         9.01556        -6.51262
   C       -4.58473         8.21325        -7.66604
   C       -4.86143         8.77326        -8.87912
   C       -4.91227        10.18177        -8.99369
   C       -4.67776        10.98745        -7.84179
   C       -4.38589        10.38072        -6.59835
   C       -4.73693        12.38974        -7.97106
   C       -5.01106        12.97103        -9.17923
   C       -5.23957        12.17741       -10.31282
   C       -5.19100        10.81249       -10.22175
   C       -4.49572         6.78644        -7.29971
   O       -4.59547         5.82101        -8.01978
   C       -4.30909         6.78275        -5.82064
   C       -4.56061         5.66870        -5.08590
   C       -4.76428         5.65660        -3.67853
   N       -5.45005         6.64576        -3.03773
   N       -5.16940         6.77815        -1.80302
   C       -4.43620         5.90675        -1.14020
   N       -4.43433         4.64563        -1.67114
   N       -4.49522         4.59050        -2.92948
   C       -3.74221         6.25050         0.06572
   C       -3.54760         7.58436         0.34464
   C       -2.73314         7.94962         1.42872
   C       -2.31221         9.20098         1.85933
   C       -2.63964        10.48681         1.18369
   C       -2.94167        11.65032         2.14256
   N       -3.87927        12.54991         1.49705
   C       -1.50551        10.85223         0.19778
   N       -1.88314        12.00181        -0.60706
   C       -1.42613         8.96874         2.97976
   C       -0.70653         9.81132         3.74249
   C        0.18158         9.31437         4.83732
   C        0.17364         7.83251         5.02727
   C       -0.54296         7.00203         4.24987
   C       -1.35318         7.51445         3.20782
   C       -2.14345         6.90486         2.25720
   C       -2.40291         5.54359         1.95955
   C       -3.16650         5.22701         0.88467
   C       -0.14374        10.07665         6.09367
   C       -0.78027         9.54904         7.14057
   C       -1.04136        10.29150         8.34260
   N       -0.54290        11.48839         8.57684
   N       -0.88452        12.20265         9.56792
   C       -2.00855        11.78616        10.22039
   N       -2.21595        10.47572        10.22590
   N       -1.66636         9.69452         9.39475
   C       -2.78238        12.65578        11.05049
   C       -3.22661        13.86705        10.63587
   C       -3.89106        14.90251        11.40790
   C       -4.25619        14.83286        12.72598
   C       -4.90495        15.87325        13.42445
   N       -5.43236        16.68082        14.04699
   C       -4.04978        13.71657        13.56360
   N       -3.90934        12.84882        14.30200
   C       -4.09052        16.04398        10.52307
   C       -3.63048        15.70561         9.21625
   C       -3.12981        14.32395         9.21995
   O       -2.78268        13.65401         8.27085
   C       -3.69794        16.58960         8.17770
   C       -4.22926        17.87938         8.40223
   C       -4.68613        18.22713         9.70646
   C       -4.60952        17.28957        10.76144
   C       -5.21450        19.51654         9.92010
   C       -5.28998        20.42044         8.89547
   C       -4.84083        20.07693         7.61158
   C       -4.32126        18.83385         7.37026
   H       -5.03879         8.15102        -9.74366
   H       -4.21788        11.00994        -5.73749
   H       -4.55859        12.99707        -7.09574
   H       -5.05309        14.04632        -9.26777
   H       -5.45464        12.65219       -11.25839
   H       -5.36649        10.19625       -11.09136
   H       -4.67581         4.72931        -5.61117
   H       -3.99680         8.33410        -0.28945
   H       -3.54926        10.34094         0.59252
   H       -2.00030        12.14913         2.42749
   H       -3.41351        11.26330         3.05205
   H       -3.45838        12.87942         0.63179
   H       -4.06684        13.35195         2.08899
   H       -1.27250         9.95786        -0.40454
   H       -0.60827        11.11154         0.76892
   H       -2.57405        11.72772        -1.30114
   H       -1.07888        12.35019        -1.11785
   H       -0.73551        10.88145         3.60212
   H        1.20836         9.61018         4.56001
   H        0.80043         7.45820         5.82214
   H       -0.50804         5.93384         4.40542
   H       -1.97151         4.77264         2.58033
   H       -3.36107         4.20182         0.61169
   H        0.16022        11.11423         6.12340
   H       -1.12805         8.52669         7.14539
   H       -2.99182        12.28401        12.04356
   H       -3.34626        16.30898         7.19600
   H       -4.96421        17.58315        11.73655
   H       -5.55976        19.77556        10.91019
   H       -5.69693        21.40531         9.06876
   H       -4.90821        20.80238         6.81473
   H       -3.97365        18.56441         6.38369
*
