# ORCA input file
# SCF done       -213.393061372559          0.000321435285
! CAM-B3LYP def2-SVP def2/J RIJCOSX Grid4 TightSCF
%maxcore 5000
%tddft
    Mode sTDDFT
    Ethresh 5.0
    maxcore 5000
end

%pal
  nprocs 6
  end
* xyz 0 1
   C        1.00742         2.91236         7.90175
   C        1.39316         4.12782         7.39142
   C        2.30534         4.28038         6.33146
   N        3.02103         4.45517         5.45021
   C        0.97806         5.35196         7.95162
   N        0.69263         6.35977         8.42278
   C        1.63815         1.62992         7.60767
   C        1.34095         0.73110         8.67381
   C        1.82898        -0.54268         8.69191
   C        2.63760        -0.98664         7.62008
   C        2.92596        -0.09674         6.54577
   C        2.41585         1.22267         6.55910
   C        3.72613        -0.55563         5.48029
   C        4.22091        -1.83147         5.47440
   C        3.93733        -2.70681         6.53283
   C        3.16333        -2.29287         7.58299
   C        0.45478         1.40317         9.64546
   O        0.03515         0.97066        10.69580
   C        0.12150         2.70948         9.02074
   C       -0.96979         3.40612         9.45958
   C       -1.76477         4.34087         8.77963
   S       -1.72009         4.61721         7.04545
   C       -3.08057         5.70153         7.06996
   C       -3.55203         5.84504         8.37902
   C       -2.81509         5.07584         9.31335
   S       -3.40022         5.25483        10.92677
   C       -4.64322         6.36056        10.34189
   C       -5.55616         6.92166        11.23847
   N       -6.31323         7.38495        11.96624
   C       -4.59587         6.57282         8.99324
   C       -3.60036         6.28391         5.89580
   C       -3.00062         6.17911         4.68218
   C       -3.48775         6.66635         3.42756
   C       -4.79029         7.08975         3.24613
   C       -5.24968         7.46070         1.96980
   C       -6.50526         7.84561         1.51050
   C       -7.77787         8.04114         2.26062
   C       -8.44658         6.68232         2.56134
   N       -9.01559         6.13088         1.34195
   C       -7.61535         8.85121         3.55706
   N       -8.92257         9.30369         4.00500
   C       -6.40526         7.94080         0.07376
   C       -7.35402         8.11020        -0.86494
   C       -7.02719         7.98990        -2.31691
   C       -5.56576         7.93706        -2.62541
   C       -4.63267         7.75938        -1.67299
   C       -5.01076         7.69040        -0.30979
   C       -4.32053         7.39287         0.84441
   C       -2.97688         7.00669         1.06571
   C       -2.58295         6.64965         2.31068
   C       -7.80637         8.97747        -3.13422
   C       -7.28210        10.01609        -3.79239
   C       -8.03935        10.88015        -4.64087
   S       -9.73267        10.65108        -4.96506
   C       -9.80166        11.95492        -6.12892
   C       -8.54662        12.56765        -6.22890
   C       -7.58155        11.94672        -5.38596
   S       -6.01653        12.68375        -5.50125
   C       -6.66414        13.82946        -6.66738
   C       -5.82265        14.80951        -7.20426
   N       -5.12469        15.61062        -7.63686
   C       -7.98873        13.64970        -6.94998
   C      -11.01381        12.17226        -6.80811
   C      -11.19684        13.02279        -7.85881
   C      -12.43178        13.12648        -8.52552
   C      -12.64645        13.90714        -9.63084
   C      -13.87416        14.01709       -10.39223
   C      -15.07970        13.42585       -10.10687
   C      -16.24023        13.57397       -10.89444
   N      -17.22130        13.64825       -11.48665
   C      -15.34838        12.59788        -8.99821
   N      -15.64977        11.91562        -8.12417
   C      -13.61127        14.88394       -11.53660
   C      -12.26112        15.33220       -11.46794
   C      -11.61525        14.75784       -10.27666
   O      -10.47130        14.94890        -9.91106
   C      -11.72491        16.15853       -12.41275
   C      -12.52867        16.57977       -13.49574
   C      -13.87951        16.13407       -13.57401
   C      -14.40811        15.28172       -12.57714
   C      -14.67160        16.55593       -14.66101
   C      -14.15570        17.37806       -15.62568
   C      -12.82555        17.81659       -15.54735
   C      -12.02938        17.42631       -14.50471
   H        1.60108        -1.20704         9.51222
   H        2.64226         1.87675         5.73118
   H        3.94412         0.12338         4.66889
   H        4.83418        -2.17286         4.65379
   H        4.33484        -3.71061         6.51228
   H        2.94174        -2.96285         8.40097
   H       -1.34516         3.11273        10.43660
   H       -5.27849         7.22358         8.47722
   H       -4.51654         6.84482         6.01656
   H       -2.04375         5.67000         4.64772
   H       -5.47783         7.07878         4.07614
   H       -8.46731         8.60195         1.61997
   H       -9.19135         6.84779         3.35386
   H       -7.69128         5.98387         2.92922
   H       -9.86178         6.63502         1.09681
   H       -9.26677         5.15830         1.47578
   H       -6.90178         9.67245         3.37732
   H       -7.21035         8.21795         4.34811
   H       -9.30416         9.98293         3.35452
   H       -8.85362         9.75214         4.91156
   H       -8.39261         8.26602        -0.61317
   H       -7.43283         6.99820        -2.59792
   H       -5.29994         7.97218        -3.67080
   H       -3.58867         7.66563        -1.93373
   H       -2.28823         6.98040         0.23432
   H       -1.56588         6.33548         2.49376
   H       -8.87411         8.80396        -3.18629
   H       -6.22382        10.23469        -3.73541
   H       -8.51464        14.28125        -7.64228
   H      -11.85189        11.57053        -6.47569
   H      -10.37940        13.61520        -8.23231
   H      -13.24521        12.52464        -8.14149
   H      -10.69795        16.48408       -12.33666
   H      -15.43399        14.96203       -12.66731
   H      -15.69527        16.21564       -14.71684
   H      -14.77027        17.69485       -16.45498
   H      -12.43465        18.46491       -16.31726
   H      -11.00426        17.76056       -14.43911
*
