# ORCA input file
# SCF done       -214.754419949782          0.000953353459
! CAM-B3LYP def2-SVP def2/J RIJCOSX Grid4 TightSCF
%maxcore 5000
%tddft
    Mode sTDDFT
    Ethresh 5.0
    maxcore 5000
end

%pal
  nprocs 6
  end
* xyz 0 1
   C       -4.76207        10.37849        -8.00363
   C       -4.03628        11.25862        -7.23486
   C       -3.73222        12.57931        -7.61203
   N       -3.49206        13.68079        -7.83477
   C       -3.47737        10.92488        -5.99050
   N       -3.01345        10.69299        -4.96479
   C       -5.10247        10.58631        -9.40920
   C       -5.45614         9.32873        -9.97777
   C       -5.77945         9.20269       -11.29693
   C       -5.77587        10.35229       -12.12058
   C       -5.43982        11.61508       -11.55455
   C       -5.09967        11.71296       -10.18450
   C       -5.44496        12.75403       -12.38422
   C       -5.76237        12.65258       -13.71162
   C       -6.09091        11.40841       -14.26884
   C       -6.09760        10.28284       -13.48993
   C       -5.40745         8.29523        -8.92682
   O       -5.59940         7.10497        -9.04372
   C       -5.11056         9.02725        -7.66430
   C       -5.26485         8.35248        -6.48210
   C       -5.41290         8.79841        -5.16017
   S       -5.17561         7.65291        -3.86477
   C       -5.49306         8.84664        -2.65094
   C       -5.83069        10.06148        -3.23833
   C       -5.77506        10.04886        -4.64024
   O       -6.10936        11.04923        -5.49403
   C       -6.24820        12.33694        -4.98610
   S       -7.46814        12.40084        -3.62082
   S       -6.24637        11.47357        -2.26228
   C       -5.35938         8.60847        -1.26414
   C       -4.99799         7.41772        -0.72928
   C       -4.73917         7.15008         0.65550
   C       -4.82381         8.12498         1.62809
   C       -4.42931         7.84600         2.94947
   C       -4.34166         8.66255         4.06971
   C       -4.72785        10.09126         4.24649
   C       -3.64184        11.05645         3.71880
   N       -3.43734        10.87995         2.29376
   C       -6.08116        10.45147         3.60883
   N       -6.64562        11.59338         4.31123
   C       -3.73960         7.86452         5.11304
   C       -3.32057         8.19691         6.34704
   C       -2.61315         7.21704         7.22331
   C       -2.55716         5.82573         6.67564
   C       -2.97189         5.51208         5.43475
   C       -3.52924         6.50531         4.59256
   C       -3.94495         6.50772         3.27928
   C       -3.93494         5.50711         2.27649
   C       -4.31638         5.82303         1.01605
   C       -3.21635         7.25131         8.60174
   C       -2.64926         7.91471         9.61389
   C       -3.15105         8.04082        10.94862
   S       -2.24764         8.99388        12.07728
   C       -3.38974         8.69392        13.35129
   C       -4.42123         7.87851        12.89464
   C       -4.30005         7.52386        11.53543
   O       -5.14649         6.74155        10.80126
   C       -6.40152         6.46417        11.32258
   S       -6.29770         5.67949        12.98141
   S       -5.74910         7.40112        13.95006
   C       -3.23541         9.23515        14.64302
   C       -2.21980        10.07189        14.99400
   C       -2.09055        10.60117        16.29277
   C       -1.10567        11.46876        16.68307
   C       -0.92948        12.04820        17.99999
   C       -1.70448        11.82872        19.11125
   C       -1.47764        12.43139        20.36598
   N       -1.34797        12.87790        21.41606
   C       -2.83148        10.98435        19.17814
   N       -3.76162        10.32493        19.32000
   C        0.23591        12.92615        17.94882
   C        0.77362        12.89200        16.63108
   C       -0.03258        11.98522        15.79554
   O        0.15636        11.72827        14.62353
   C        1.87140        13.62206        16.27845
   C        2.49721        14.43756        17.24766
   C        1.96793        14.47616        18.56959
   C        0.82854        13.70851        18.90450
   C        2.60010        15.29196        19.52990
   C        3.70115        16.03520        19.20178
   C        4.22061        15.99727        17.89925
   C        3.63150        15.21518        16.94308
   H       -6.03380         8.23808       -11.71054
   H       -4.85171        12.68289        -9.78214
   H       -5.18827        13.70981       -11.95100
   H       -5.76095        13.53122       -14.33936
   H       -6.33851        11.34563       -15.31804
   H       -6.34989         9.32169       -13.91375
   H       -5.33362         7.27403        -6.60338
   H       -6.62893        12.95394        -5.79937
   H       -5.30133        12.73448        -4.60547
   H       -5.53627         9.47248        -0.63848
   H       -4.84247         6.59019        -1.41240
   H       -5.13517         9.12467         1.37998
   H       -4.81684        10.28436         5.32148
   H       -2.72372        10.90970         4.31318
   H       -4.00733        12.07185         3.88634
   H       -2.94050        10.01498         2.10934
   H       -2.89124        11.64375         1.91395
   H       -6.73736         9.56535         3.61665
   H       -5.91443        10.75458         2.57486
   H       -6.95491        11.32327         5.23961
   H       -7.44891        11.95603         3.81090
   H       -3.44293         9.19331         6.75012
   H       -1.57629         7.58273         7.31363
   H       -2.13154         5.08135         7.33103
   H       -2.88236         4.50135         5.06372
   H       -3.60525         4.50917         2.52587
   H       -4.29586         5.07432         0.23733
   H       -4.15069         6.72822         8.72562
   H       -1.71113         8.43268         9.45253
   H       -6.86619         5.74202        10.65235
   H       -7.02321         7.36042        11.42167
   H       -3.98733         8.95497        15.37152
   H       -1.48573        10.35437        14.25194
   H       -2.83519        10.29349        17.01559
   H        2.25745        13.57794        15.27074
   H        0.45369        13.76213        19.91407
   H        2.19629        15.31815        20.53143
   H        4.17808        16.65705        19.94455
   H        5.08973        16.59070        17.65735
   H        4.02697        15.18166        15.93831
*
