# ORCA input file
# SCF done       -204.000444404108          0.000633632694
! CAM-B3LYP def2-SVP def2/J RIJCOSX Grid4 TightSCF
%maxcore 5000
%tddft
    Mode sTDDFT
    Ethresh 5.0
    maxcore 5000
end

%pal
  nprocs 6
  end
* xyz 0 1
   C       -2.65598         3.21652        -5.20885
   C       -2.94814         2.85161        -3.91777
   C       -3.23786         1.53217        -3.52272
   N       -3.44251         0.47037        -3.13381
   C       -3.08982         3.75546        -2.84653
   N       -3.29189         4.43176        -1.94032
   C       -2.79424         2.35837        -6.38162
   C       -2.79371         3.18087        -7.54585
   C       -2.93678         2.65510        -8.79632
   C       -3.07565         1.25569        -8.94480
   C       -3.06253         0.42674        -7.78684
   C       -2.92299         1.00130        -6.50171
   C       -3.19385        -0.96712        -7.94867
   C       -3.33391        -1.51809        -9.19342
   C       -3.34766        -0.70094       -10.33307
   C       -3.22177         0.65648       -10.21095
   C       -2.59829         4.58742        -7.14330
   O       -2.59081         5.56930        -7.85347
   C       -2.35030         4.54634        -5.67789
   C       -1.83992         5.64906        -5.05873
   C       -1.22117         5.78526        -3.78250
   C       -1.27472         7.00583        -3.13740
   C       -0.84535         7.19219        -1.81331
   C       -0.51311         4.72313        -3.11171
   C       -0.08106         3.51169        -3.53211
   C        0.67256         2.83429        -2.43396
   C        0.11077         1.45968        -2.05448
   C        0.61531         3.82659        -1.32234
   C       -0.07312         4.92263        -1.72693
   C       -0.31194         6.17121        -1.06539
   C        0.02076         6.33068         0.34484
   C        0.68544         7.44289         0.79165
   C        1.06497         7.54262         2.14947
   C        1.79111         8.50603         2.82979
   C        2.32858         9.77512         2.25512
   C        1.84262        11.02246         3.00949
   N        0.39623        10.99017         3.18432
   C        3.86601         9.75044         2.19117
   N        4.35748        10.92215         1.48479
   C        1.90490         8.05371         4.19676
   C        2.53471         8.56727         5.26876
   C        2.44211         7.93902         6.61300
   C        1.72878         6.62051         6.64229
   C        1.13494         6.09821         5.55449
   C        1.18647         6.77467         4.31268
   C        0.69531         6.46687         3.06160
   C       -0.04062         5.36017         2.57663
   C       -0.35301         5.29173         1.25887
   C        1.70862         8.85265         7.56945
   C        0.82253         9.76732         7.16464
   C        0.06654        10.65479         8.01667
   C        0.34476        10.86097         9.35096
   C       -0.38415        11.74536        10.15665
   C       -1.01929        11.40366         7.45046
   C       -1.52006        11.41910         6.18888
   C       -2.65996        12.37765         6.12574
   C       -2.51521        13.44892         5.04127
   C       -2.73018        12.92696         7.51270
   C       -1.78202        12.34302         8.28153
   C       -1.44431        12.50041         9.68302
   C       -2.21431        13.41864        10.44258
   C       -2.24364        13.80579        11.76000
   C       -3.18292        14.80936        12.24212
   C       -4.06659        15.55797        11.50173
   C       -4.93190        16.52745        12.05051
   N       -5.66416        17.33401        12.41568
   C       -4.26905        15.51329        10.10751
   N       -4.52310        15.56968         8.98647
   C       -3.02839        14.92181        13.68871
   C       -1.99459        14.03585        14.09562
   C       -1.45660        13.32938        12.92006
   O       -0.54615        12.52317        12.95637
   C       -1.61750        13.90829        15.40053
   C       -2.27708        14.67740        16.38509
   C       -3.31585        15.56720        15.98871
   C       -3.68011        15.67847        14.62656
   C       -3.97118        16.32770        16.97828
   C       -3.61974        16.21483        18.29595
   C       -2.59665        15.33770        18.68481
   C       -1.93899        14.58593        17.74921
   H       -2.94190         3.29712        -9.66472
   H       -2.91162         0.34929        -5.64215
   H       -3.18562        -1.59217        -7.06755
   H       -3.43550        -2.58725        -9.30628
   H       -3.45847        -1.15181       -11.30805
   H       -3.23171         1.29102       -11.08527
   H       -1.89489         6.55579        -5.65552
   H       -1.75814         7.83423        -3.63683
   H       -1.01543         8.15397        -1.35123
   H       -0.18210         3.07714        -4.50923
   H        1.71702         2.69883        -2.74363
   H       -0.91984         1.55621        -1.72159
   H        0.69695         1.02332        -1.24970
   H        0.13709         0.79055        -2.91098
   H        1.09110         3.66936        -0.37248
   H        0.97241         8.21529         0.09188
   H        1.96179         9.85526         1.22462
   H        2.19971        11.90364         2.45484
   H        2.28591        11.06024         4.00664
   H       -0.05860        10.86180         2.28537
   H        0.08252        11.87927         3.56115
   H        4.17646         8.79800         1.72735
   H        4.27772         9.77721         3.20255
   H        4.05875        10.89724         0.51487
   H        5.37118        10.94069         1.49313
   H        3.10368         9.48448         5.22179
   H        3.46054         7.80252         7.00648
   H        1.68832         6.12343         7.59940
   H        0.61815         5.15098         5.61250
   H       -0.34251         4.58024         3.26021
   H       -0.92801         4.46591         0.86867
   H        1.90044         8.67222         8.61714
   H        0.63159         9.86756         6.10507
   H        1.16799        10.33637         9.81207
   H       -0.09456        11.83800        11.19053
   H       -1.18846        10.85609         5.33637
   H       -3.58224        11.81778         5.92276
   H       -1.60213        14.01689         5.20310
   H       -3.35944        14.13213         5.07714
   H       -2.47654        12.98654         4.05783
   H       -3.45227        13.67449         7.78433
   H       -2.95551        13.91535         9.83224
   H       -0.82742        13.22619        15.67804
   H       -4.47276        16.36054        14.36486
   H       -4.75829        17.00215        16.67413
   H       -4.12887        16.80110        19.04638
   H       -2.33239        15.26032        19.72904
   H       -1.15001        13.90847        18.04216
*
