# ORCA input file
# SCF done       -208.857838655867          0.000999387151
! CAM-B3LYP def2-SVP def2/J RIJCOSX Grid4 TightSCF
%maxcore 5000
%tddft
    Mode sTDDFT
    Ethresh 5.0
    maxcore 5000
end

%pal
  nprocs 6
  end
* xyz 0 1
   C        1.76383        -7.09969        11.30511
   C        2.77548        -6.55014        12.07725
   C        3.14532        -7.20373        13.25382
   C        4.17688        -6.65649        14.05683
   N        5.01187        -6.20866        14.69935
   C        2.51389        -8.39548        13.65957
   C        2.91004        -9.03309        14.85967
   N        3.21516        -9.56298        15.82791
   C        1.49849        -8.94674        12.87780
   C        1.14356        -8.29046        11.71846
   C        0.10507        -8.68617        10.73886
   O       -0.58223        -9.67881        10.83696
   C        0.13120        -7.64766         9.68397
   C        1.14975        -6.66680        10.04996
   C        1.48945        -5.51690         9.38674
   C        2.49107        -4.61844         9.81922
   N        3.28607        -3.84266        10.10652
   C        0.92140        -5.01706         8.19353
   N        0.53486        -4.51154         7.23650
   C       -0.59839        -7.53240         8.53185
   C       -1.66470        -8.26059         7.92212
   C       -2.13500        -7.72740         6.70477
   C       -3.18825        -8.34288         6.06557
   C       -3.79301        -9.51127         6.61042
   C       -3.31525       -10.04192         7.80712
   C       -2.27101        -9.42325         8.44943
   C       -4.83741        -9.87846         5.71554
   C       -4.82262        -8.91970         4.66539
   N       -3.83020        -8.00154         4.89939
   C       -3.50213        -6.88875         4.05322
   C       -5.72767        -8.99106         3.62360
   C       -6.67449       -10.02023         3.62997
   C       -6.68472       -10.97219         4.67421
   C       -5.77829       -10.90704         5.70267
   C       -7.64803       -10.10184         2.57762
   C       -8.72008       -10.98338         2.42678
   C       -9.51152       -10.73004         1.24252
   N      -10.58266       -11.48375         0.96667
   C      -10.88132       -12.45229         1.79816
   C      -12.07740       -13.27048         1.47942
   O      -12.77966       -13.05706         0.51381
   C      -12.35705       -14.35932         2.43296
   C      -11.61519       -14.60544         3.51754
   C      -10.42737       -13.81766         3.89328
   O       -9.77511       -14.06057         4.88662
   C      -10.09224       -12.70967         2.96454
   N       -9.04235       -11.98195         3.25866
   C       -9.03927        -9.66244         0.47587
   S       -7.63747        -8.99510         1.24382
   C       -9.55424        -9.12335        -0.75142
   C       -8.86696        -8.09392        -1.40268
   C       -9.38621        -7.59423        -2.58172
   C      -10.60288        -8.10012        -3.11580
   C      -11.27714        -9.12662        -2.45807
   C      -10.75526        -9.63205        -1.29341
   C      -10.85632        -7.36367        -4.30881
   C       -9.78096        -6.44482        -4.44863
   N       -8.90539        -6.60702        -3.40620
   C       -7.69065        -5.86197        -3.23173
   C       -9.73290        -5.55631        -5.50593
   C      -10.73629        -5.62535        -6.47573
   C      -11.80845        -6.53022        -6.32413
   C      -11.88223        -7.38210        -5.25008
   C      -10.68286        -4.72876        -7.59759
   C      -11.16361        -4.92627        -8.85054
   C      -11.39359        -3.76864        -9.75440
   O      -10.99001        -2.63926        -9.61559
   C      -12.27435        -4.29063       -10.82770
   C      -12.89404        -3.59635       -11.84508
   C      -13.71911        -4.30603       -12.71937
   C      -13.90529        -5.69195       -12.55056
   C      -13.26297        -6.38831       -11.52531
   C      -12.44157        -5.68062       -10.66433
   C      -11.63020        -6.12068        -9.52993
   C      -11.18678        -7.39738        -9.32014
   C      -10.18312        -7.72591        -8.38244
   N       -9.32270        -8.03558        -7.68985
   C      -11.60918        -8.50824       -10.08040
   N      -11.94317        -9.43630       -10.66617
   C      -14.76619        -6.39038       -13.43356
   N      -15.46332        -6.96299       -14.13829
   C      -14.37841        -3.62927       -13.77387
   N      -14.90441        -3.06453       -14.61977
   H        3.28598        -5.64095        11.80411
   H        1.00231        -9.85997        13.16956
   H       -0.31863        -6.67385         7.93263
   H       -1.66972        -6.84389         6.29294
   H       -3.76568       -10.92880         8.22455
   H       -1.90418        -9.83107         9.37432
   H       -4.40678        -6.51034         3.57845
   H       -2.78904        -7.17852         3.27543
   H       -3.06496        -6.09001         4.65024
   H       -5.71997        -8.27123         2.81846
   H       -7.42455       -11.75456         4.64982
   H       -5.79489       -11.63981         6.49387
   H      -13.22327       -14.96235         2.19568
   H      -11.85662       -15.41656         4.19137
   H       -7.94960        -7.71126        -0.97962
   H      -12.19756        -9.51947        -2.86020
   H      -11.25911       -10.42844        -0.77199
   H       -7.18157        -5.75779        -4.19065
   H       -7.03281        -6.39220        -2.54669
   H       -7.89303        -4.86525        -2.82824
   H       -8.92337        -4.85212        -5.62082
   H      -12.60893        -6.51377        -7.04900
   H      -12.71615        -8.05690        -5.13559
   H      -10.26046        -3.74545        -7.41463
   H      -12.74742        -2.53310       -11.96008
   H      -13.42960        -7.44897       -11.41971
*
