# ORCA input file
# SCF done       -196.790007477382          0.000556681797
! CAM-B3LYP def2-SVP def2/J RIJCOSX Grid4 TightSCF
%maxcore 5000
%tddft
    Mode sTDDFT
    Ethresh 5.0
    maxcore 5000
end

%pal
  nprocs 6
  end
* xyz 0 1
   C       -5.45371        -2.30911         1.33219
   C       -5.00494        -2.96088         0.21522
   C       -4.59001        -4.30936         0.20399
   N       -4.23544        -5.39912         0.13909
   C       -4.93469        -2.39888        -1.07837
   N       -4.86969        -2.03242        -2.16438
   C       -5.63495        -2.90050         2.65009
   C       -6.28729        -1.95857         3.48181
   C       -6.60069        -2.22055         4.79363
   C       -6.25044        -3.47176         5.31055
   C       -5.59409        -4.40581         4.47300
   C       -5.27977        -4.14183         3.14611
   S       -5.24360        -5.88398         5.31653
   C       -5.97514        -5.23742         6.76154
   C       -6.45722        -3.97964         6.62239
  Br       -6.02981        -6.28227         8.31801
   C       -6.54413        -0.71560         2.72538
   O       -7.10144         0.27119         3.15103
   C       -5.91789        -0.93023         1.39310
   C       -5.59880         0.02964         0.48451
   C       -6.01686         1.39787         0.43729
   C       -7.24287         1.89822         0.85981
   C       -7.57117         3.25145         0.77229
   C       -6.69874         4.20687         0.27682
   C       -5.46566         3.72955        -0.21258
   C       -5.14136         2.34242        -0.15010
   N       -3.93522         2.18831        -0.71265
   N       -3.60156         3.39323        -1.08897
   N       -4.44816         4.34782        -0.83210
   C       -2.35646         3.64808        -1.74498
   C       -6.99667         5.62945         0.27128
   C       -8.23645         6.14733        -0.12891
   C       -8.50550         7.56322        -0.13184
   N       -9.73042         8.00727        -0.51323
   C      -10.61410         7.15196        -0.89452
   C      -10.33365         5.75363        -0.93092
   N       -9.19397         5.28575        -0.55673
   F      -11.25532         4.89107        -1.35299
   F      -11.80899         7.61203        -1.26113
   C       -7.55141         8.49936         0.29153
   C       -6.30721         7.98495         0.68875
   C       -6.03064         6.56499         0.67427
   N       -4.79554         6.29951         1.11403
   S       -4.06358         7.67944         1.45156
   N       -5.24568         8.68887         1.09444
   C       -7.82187         9.92582         0.35863
   C       -8.47426        10.62607        -0.64245
   C       -8.67580        12.00455        -0.58575
   C       -8.27128        12.78029         0.49363
   C       -7.66822        12.07777         1.55851
   C       -7.42043        10.67490         1.48276
   N       -6.84396        10.31252         2.63928
   N       -6.75166        11.42218         3.31321
   N       -7.21278        12.50188         2.74505
   C       -6.18191        11.45923         4.62453
   C       -8.49562        14.19208         0.60897
   C       -8.55704        15.12599        -0.36945
   C       -8.19803        15.09380        -1.77583
   C       -7.21415        14.33012        -2.34419
   C       -6.84210        14.41626        -3.70166
   N       -6.51749        14.43914        -4.80231
   C       -6.39017        13.43820        -1.62553
   N       -5.64586        12.74521        -1.09415
   C       -8.87905        16.21052        -2.42087
   C       -9.43768        17.04422        -1.41868
   C       -9.18414        16.44987        -0.09084
   O       -9.46339        16.90646         0.99232
   C      -10.10725        18.20651        -1.71647
   C      -10.24019        18.55675        -3.06400
   C       -9.69199        17.70936        -4.05742
   C       -9.00859        16.53768        -3.75750
   S       -9.98072        18.32746        -5.65490
   C      -10.81693        19.69978        -4.97726
   C      -10.88044        19.69582        -3.62458
  Br      -11.52761        21.00584        -6.11961
   H       -7.09961        -1.48229         5.40174
   H       -4.77327        -4.88228         2.54980
   H       -6.93799        -3.43052         7.41129
   H       -4.87338        -0.22061        -0.28160
   H       -7.97893         1.21994         1.25717
   H       -8.53522         3.57081         1.13396
   H       -1.95507         2.69887        -2.09249
   H       -1.65476         4.11156        -1.04931
   H       -2.52132         4.32535        -2.58152
   H       -8.81585        10.08897        -1.51249
   H       -9.19765        12.48021        -1.40385
   H       -5.22781        10.93378         4.61990
   H       -6.84906        10.97123         5.33704
   H       -6.04369        12.50118         4.90323
   H       -8.68491        14.55171         1.61554
   H      -10.51494        18.82738        -0.93426
   H       -8.61254        15.91960        -4.54637
   H      -11.35853        20.46352        -3.04400
*
