# ORCA input file
# SCF done       -179.827191180250          0.000690335342
! CAM-B3LYP def2-SVP def2/J RIJCOSX Grid4 TightSCF
%maxcore 5000
%tddft
    Mode sTDDFT
    Ethresh 5.0
    maxcore 5000
end

%pal
  nprocs 6
  end
* xyz 0 1
   C       -0.75062         0.07118        -2.18441
   S       -0.24802        -1.45209        -2.80066
   C       -0.40202        -2.20525        -1.24353
   C       -0.81875        -1.26918        -0.29259
   C       -1.03242         0.01891        -0.86351
   C       -1.01780        -1.39972         1.13827
   O       -1.68892        -0.64254         1.79906
   C       -0.24705        -2.51950         1.90184
   F        0.95644        -2.78255         1.36848
   F       -0.04004        -2.15775         3.16670
   F       -0.93284        -3.67551         1.93177
   C       -0.20628        -3.60792        -1.12183
   C        0.27700        -4.39285        -2.11233
   C        0.45696        -5.79429        -1.98893
   S        0.10011        -6.70024        -0.53962
   C        0.94254        -6.65244        -2.95121
   C        1.46897        -6.51836        -4.31494
   O        1.56896        -5.54662        -5.02159
   N        1.87088        -7.80476        -4.65885
   C        2.45555        -8.13692        -5.94071
   C        1.38778        -8.57868        -6.93520
   C        1.65690        -8.74730        -3.66371
   O        1.98890        -9.90550        -3.74659
   C        1.01339        -8.00797        -2.55940
   C        0.57215        -8.22324        -1.26872
   C        0.47250        -9.37205        -0.42312
   N        0.18358       -10.66312        -0.77947
   C       -0.24870       -11.15363        -2.06678
   C       -1.56577       -10.52188        -2.50710
   C        0.17175       -11.51607         0.34652
   O       -0.08937       -12.70077         0.28210
   C        0.50428       -10.65830         1.45853
   C        0.64991        -9.34109         0.95366
   C        1.01391        -8.47329         2.05277
   O        1.23238        -7.28186         2.10903
   N        1.07754        -9.33666         3.16205
   C        1.34942        -8.83025         4.48588
   C        0.07100        -8.66923         5.30429
   C        0.76776       -10.63395         2.82633
   C        0.76061       -11.70700         3.75405
   C        0.41112       -12.96964         3.40600
   C        0.41723       -14.03405         4.34620
   S       -0.08469       -15.66555         3.91994
   C        0.27781       -16.07156         5.59115
   N        0.70721       -15.04456         6.27326
   N        0.78098       -13.93732         5.59683
   C        0.10734       -17.38711         6.10997
   C        0.44321       -17.70153         7.37852
   C        0.29491       -18.99173         7.96835
   S        0.88931       -19.26300         9.58669
   C        0.38684       -20.90970         9.57316
   C       -0.23211       -21.23118         8.35501
   C       -0.27056       -20.13265         7.46278
   C       -0.76905       -22.54242         8.06740
   O       -0.72954       -23.52581         8.76856
   C       -1.48372       -22.66940         6.68681
   F       -0.65116       -22.43191         5.65728
   F       -1.98259       -23.88901         6.51283
   F       -2.50546       -21.80301         6.56243
   C        0.60263       -21.77007        10.69901
   C        1.21502       -21.38959        11.82111
   H       -0.80785         0.91477        -2.84293
   H       -1.36114         0.85368        -0.27200
   H       -0.47578        -4.08184        -0.19082
   H        0.56156        -3.97443        -3.07000
   H        3.17727        -8.94045        -5.77533
   H        2.96886        -7.24357        -6.30359
   H        0.87290        -9.46293        -6.56644
   H        1.85014        -8.81634        -7.88880
   H        0.66243        -7.78258        -7.08660
   H       -0.37901       -12.23146        -1.93524
   H        0.53391       -10.98407        -2.80803
   H       -2.33680       -10.69053        -1.75802
   H       -1.88679       -10.97218        -3.44204
   H       -1.45790        -9.45012        -2.65989
   H        1.81940        -7.85320         4.34330
   H        2.05555        -9.49308         4.99291
   H       -0.60350        -7.97686         4.80648
   H        0.31197        -8.27280         6.28650
   H       -0.43628        -9.62361         5.42657
   H        1.04568       -11.51424         4.77778
   H        0.11465       -13.20460         2.39316
   H       -0.29977       -18.12216         5.43255
   H        0.86310       -16.92494         8.00231
   H       -0.69952       -20.16765         6.47968
   H        0.23337       -22.77924        10.58638
   H        1.59418       -20.38813        11.95041
   H        1.35431       -22.07187        12.64030
*
