# ORCA input file
# SCF done       -213.303497310859          0.000662069885
! CAM-B3LYP def2-SVP def2/J RIJCOSX Grid4 TightSCF
%maxcore 5000
%tddft
    Mode sTDDFT
    Ethresh 5.0
    maxcore 5000
end

%pal
  nprocs 6
  end
* xyz 0 1
   C       13.00427        -2.02404        -3.77018
   C       13.66181        -3.20878        -3.88367
   S       15.01553        -3.07205        -4.94594
   C       14.69813        -1.37728        -5.23791
  Cl       15.68806        -0.45816        -6.25879
   C       13.59639        -0.97286        -4.54552
   C       12.82941         0.26558        -4.36653
   O       13.04568         1.36495        -4.81079
   C       11.65068        -0.14546        -3.53123
   C       11.86760        -1.49300        -3.04245
   C       11.27629        -2.11540        -1.97474
   C       11.62153        -3.43269        -1.60852
   N       11.86735        -4.51298        -1.31013
   C       10.31927        -1.53825        -1.12151
   N        9.54215        -1.12014        -0.38601
   C       10.59998         0.70809        -3.43409
   C        9.26112         0.46170        -3.00691
   C        8.48664         1.52139        -2.48607
   C        7.14538         1.32425        -2.03571
   N        6.51070         2.31035        -1.36562
   C        7.07714         3.46603        -1.28468
   C        8.35646         3.70695        -1.86608
   N        9.04314         2.75163        -2.39668
   F        8.89747         4.91710        -1.83122
   F        6.45560         4.41323        -0.58926
   C        6.46186         0.10202        -2.22193
   C        7.21130        -0.95129        -2.77070
   C        8.59688        -0.77403        -3.15029
   N        9.09525        -1.88087        -3.70782
   S        7.95967        -3.01237        -3.74410
   N        6.77272        -2.17544        -3.07456
   C        5.04808         0.09848        -1.98045
   N        4.28356        -0.86561        -1.39220
   C        4.73510        -2.08209        -0.75384
   C        4.28730        -3.31648        -1.52875
   C        2.92874        -0.47852        -1.32403
   O        2.07566        -1.14865        -0.77262
   C        2.88331         0.81543        -1.96657
   C        4.20849         1.14784        -2.33886
   C        4.17896         2.41199        -3.04735
   O        5.04446         3.08213        -3.56815
   N        2.81901         2.77281        -3.03176
   C        2.37847         4.02176        -3.60760
   C        1.98885         3.86291        -5.07562
   C        2.03899         1.84458        -2.39158
   C        0.61956         1.95402        -2.34880
   C       -0.23372         1.35280        -1.48583
   C        0.06425         0.68746        -0.25603
   C       -0.80740        -0.31876         0.21536
   C       -0.55220        -1.04429         1.42112
   N       -1.38084        -2.04896         1.79092
   C       -2.39546        -2.32340         1.04300
   C       -2.67179        -1.57505        -0.13842
   N       -1.89736        -0.61974        -0.52841
   F       -3.74722        -1.84240        -0.87236
   F       -3.18754        -3.32460         1.40723
   C        0.52274        -0.72177         2.27577
   C        1.37968         0.30055         1.82778
   C        1.15415         0.99351         0.58054
   N        2.08128         1.93139         0.36902
   S        3.13940         1.91076         1.56422
   N        2.48603         0.73761         2.43969
   C        0.71850        -1.45996         3.48426
   C        1.26196        -1.05292         4.65725
   C        1.69126        -2.09034         5.65532
   O        1.43578        -3.26774         5.62052
   C        2.51174        -1.34827         6.61947
   C        3.27176        -1.63167         7.71480
   S        3.97238        -0.16891         8.36793
   C        3.22008         0.80799         7.16046
   C        2.48286         0.05086         6.30459
   C        1.61180         0.26170         5.16474
   C        1.08255         1.47365         4.81058
   C        1.50270         2.66948         5.42932
   N        1.84784         3.65475         5.90513
   C        0.05720         1.66650         3.86692
   N       -0.79363         1.88335         3.12668
  Cl        3.55918        -3.14091         8.42616
   H       13.44410        -4.15440        -3.42837
   H       10.79520         1.72667        -3.75509
   H        4.29712        -2.10692         0.24988
   H        5.82139        -2.04556        -0.67012
   H        4.63757        -4.21101        -1.02216
   H        4.69637        -3.29479        -2.53452
   H        3.20225        -3.34427        -1.57950
   H        3.22377         4.71175        -3.53476
   H        1.54850         4.41495        -3.01683
   H        2.84483         3.51429        -5.64774
   H        1.67127         4.82139        -5.47628
   H        1.17830         3.14764        -5.19564
   H        0.17898         2.53975        -3.14494
   H       -1.28835         1.36141        -1.72878
   H        0.40373        -2.49819         3.44700
   H        3.38279         1.86748         7.16390
*
