# ORCA input file
# SCF done       -187.052561355948          0.000522311748
! CAM-B3LYP def2-SVP def2/J RIJCOSX Grid4 TightSCF
%maxcore 5000
%tddft
    Mode sTDDFT
    Ethresh 5.0
    maxcore 5000
end

%pal
  nprocs 6
  end
* xyz 0 1
   C       -1.83211        -2.78503        -0.09175
   C       -2.77143        -2.77285         0.89069
   S       -3.49917        -4.32761         1.07698
   C       -2.52439        -5.00930        -0.20441
  Cl       -2.68011        -6.63258        -0.66177
   C       -1.68808        -4.06577        -0.72161
   C       -0.65862        -3.99240        -1.76595
   O       -0.29425        -4.84613        -2.53546
   C       -0.09486        -2.60804        -1.63107
   C       -0.93771        -1.84113        -0.73301
   C       -1.04177        -0.47952        -0.63883
   C       -1.93488         0.12745         0.26729
   N       -2.64017         0.62851         1.02087
   C       -0.33509         0.42886        -1.44934
   N        0.20316         1.20081        -2.10649
   C        1.08167        -2.31828        -2.23980
   C        1.99510        -1.24949        -1.98319
   C        2.86511        -0.80765        -3.00217
   C        3.80081         0.25905        -2.80023
   N        4.49683         0.74509        -3.85440
   C        4.35705         0.18203        -5.00417
   C        3.50048        -0.94422        -5.18407
   N        2.77385        -1.39521        -4.21895
   F        3.42802        -1.55710        -6.35996
   F        5.03800         0.68579        -6.03084
   C        3.97840         0.85686        -1.53939
   C        3.15953         0.38346        -0.50305
   C        2.16354        -0.64036        -0.72354
   N        1.51716        -0.94669         0.40595
   S        2.10174        -0.04837         1.60005
   N        3.20419         0.75852         0.78023
   C        4.95932         1.89734        -1.32041
   C        4.65950         3.05196        -0.57767
   C        5.64787         4.06005        -0.31038
   N        5.30275         5.15627         0.40630
   C        4.09279         5.26658         0.84088
   C        3.10731         4.27842         0.55073
   N        3.39048         3.22957        -0.14066
   F        1.85525         4.42994         0.97111
   F        3.78260         6.34773         1.54895
   C        6.96683         3.95475        -0.79297
   C        7.25460         2.81959        -1.57317
   C        6.26615         1.79469        -1.82356
   N        6.78195         0.77156        -2.51237
   S        8.31409         1.08321        -2.84157
   N        8.43740         2.50463        -2.11363
   C        7.99574         4.91593        -0.47491
   C        8.08510         5.56903         0.76974
   N        9.05431         6.39118         1.06032
   C       10.01567         6.59814         0.15742
   N       10.01354         6.04252        -1.05758
   C        9.02584         5.24083        -1.37112
   C       11.09039         7.46259         0.56939
   N       12.13413         7.88198        -0.21439
   C       12.40815         7.52811        -1.58663
   C       13.08638         6.16567        -1.69082
   C       13.01430         8.71670         0.49862
   O       14.01172         9.20977         0.00907
   C       12.43702         8.80288         1.82024
   C       11.25019         8.01915         1.82949
   C       10.67454         8.09523         3.15935
   O        9.69813         7.60956         3.67538
   N       11.56448         8.95135         3.86166
   C       11.35103         9.24255         5.25826
   C       12.21779         8.36591         6.15925
   C       12.60964         9.36222         3.08081
   C       13.65516        10.22795         3.54847
   C       14.68149        10.60290         2.78182
   H       -3.08245        -1.96622         1.52437
   H        1.40347        -3.02219        -3.00075
   H        7.35792         5.39104         1.54880
   H        9.03573         4.84275        -2.37654
   H       13.07655         8.30446        -1.96964
   H       11.47404         7.52744        -2.14951
   H       14.00646         6.15936        -1.11125
   H       13.32621         5.95590        -2.72914
   H       12.42432         5.38750        -1.32078
   H       10.29533         9.03196         5.45136
   H       11.53874        10.30298         5.44685
   H       11.98088         7.31798         5.99282
   H       12.02477         8.60462         7.20153
   H       13.27512         8.51903         5.95362
   H       13.58061        10.57597         4.56948
   H       14.77674        10.26785         1.76223
   H       15.44956        11.25490         3.16099
*
