# ORCA input file
# SCF done       -141.701084553832          0.000724990142
! CAM-B3LYP def2-SVP def2/J RIJCOSX Grid4 TightSCF
%maxcore 5000
%tddft
    Mode sTDDFT
    Ethresh 5.0
    maxcore 5000
end

%pal
  nprocs 6
  end
* xyz 0 1
   C        3.27395         1.65558         4.15106
   C        2.68238         2.56266         4.97500
   S        3.56914         4.04259         5.01415
   C        4.76632         3.43268         3.89658
  Cl        6.07675         4.38134         3.39874
   C        4.46728         2.15250         3.53284
   C        5.03889         1.12240         2.66751
   O        6.04949         1.19028         1.99744
   C        4.11992        -0.03619         2.77930
   C        3.04059         0.29685         3.70301
   C        1.98958        -0.48187         4.10582
   C        1.02676         0.00339         5.01780
   N        0.23225         0.37600         5.75613
   C        1.72790        -1.80522         3.69715
   N        1.45864        -2.88219         3.40417
   C        4.24827        -1.21907         2.11435
   C        5.23002        -1.64911         1.18965
   S        6.62811        -0.77608         0.64864
   C        7.09358        -2.07995        -0.38600
   C        8.36467        -1.94634        -1.06626
   O        8.90030        -2.76165        -1.77833
   C        6.19176        -3.15087        -0.33114
   C        5.16081        -2.89431         0.57711
   C        6.26755        -4.37208        -1.09590
   S        5.64105        -5.84965        -0.44044
   C        6.07884        -6.72424        -1.87460
   C        5.92319        -8.16082        -1.89708
   O        6.30544        -8.89646        -2.77436
   C        6.65602        -5.88585        -2.81717
   C        6.76043        -4.56019        -2.36157
   C        7.11128        -6.27573        -4.14910
   C        8.36110        -5.86100        -4.59788
   C        8.76012        -6.18430        -5.89072
   C        7.85473        -6.88934        -6.69125
   N        6.66782        -7.27099        -6.26979
   C        6.30038        -6.98377        -5.03788
   C       10.05042        -5.78385        -6.42956
   N       11.25333        -6.06648        -5.83731
   C       11.47710        -6.91673        -4.69252
   C       11.11551        -8.37073        -4.98159
   C       12.33772        -5.55409        -6.59283
   O       13.49864        -5.69443        -6.27029
   C       11.70459        -4.89339        -7.70698
   C       10.29289        -5.07303        -7.58254
   C        9.66595        -4.36126        -8.67011
   O        8.50655        -4.19527        -8.98314
   N       10.74929        -3.80518        -9.39379
   C       10.47981        -3.01671       -10.57028
   C       10.56951        -3.85050       -11.84697
   C       11.96154        -4.12137        -8.82497
   C       13.29175        -3.74381        -9.22282
   C       13.71972        -3.13926       -10.33091
   H        1.78991         2.46951         5.56146
   H        3.48616        -1.96854         2.29334
   H        8.84947        -0.97555        -0.84665
   H        4.36645        -3.59309         0.77670
   H        5.42290        -8.55434        -0.99010
   H        7.17094        -3.76770        -2.95865
   H        8.99945        -5.27645        -3.95078
   H        8.11105        -7.15662        -7.70666
   H        5.30997        -7.30741        -4.75101
   H       10.91023        -6.54996        -3.83319
   H       12.54538        -6.83268        -4.47184
   H       10.05006        -8.47646        -5.17491
   H       11.37355        -8.98856        -4.12603
   H       11.66586        -8.72940        -5.84836
   H       11.15807        -2.16105       -10.59786
   H        9.45484        -2.64911       -10.45686
   H       11.54414        -4.32494       -11.93939
   H       10.39931        -3.21859       -12.71476
   H        9.80968        -4.62781       -11.82884
   H       14.02014        -4.03944        -8.47703
   H       13.08276        -2.83776       -11.14192
   H       14.76950        -2.93778       -10.46154
*
