# ORCA input file
# SCF done       -169.753710234560          0.000746945135
! CAM-B3LYP def2-SVP def2/J RIJCOSX Grid4 TightSCF
%maxcore 5000
%tddft
    Mode sTDDFT
    Ethresh 5.0
    maxcore 5000
end

%pal
  nprocs 6
  end
* xyz 0 1
   C        4.54642         2.83915         1.46674
   C        4.43614         4.15533         1.79551
   S        3.87682         5.08738         0.45590
   C        3.78398         3.67469        -0.57137
  Cl        3.27397         3.78560        -2.18205
   C        4.17545         2.56314         0.11193
   C        4.30382         1.12546        -0.16838
   O        3.99404         0.54723        -1.17822
   C        4.79982         0.53964         1.12341
   C        4.94579         1.60280         2.10699
   C        5.41963         1.51025         3.38925
   C        5.51603         2.64880         4.21785
   N        5.59468         3.56173         4.90821
   C        5.86779         0.33624         4.02664
   N        6.25607        -0.57717         4.60373
   C        4.95275        -0.78800         1.38525
   C        4.93352        -1.84430         0.44596
   N        5.13669        -1.77366        -0.83259
   C        5.04884        -2.95878        -1.41341
   C        4.76138        -4.05271        -0.55306
   S        4.63119        -3.50973         1.06237
   N        4.64580        -5.23786        -1.13340
   C        4.83834        -5.14088        -2.42538
   S        5.19420        -3.50343        -3.03312
   C        4.77066        -6.21062        -3.34850
   N        4.47960        -7.51860        -3.05717
   C        4.12910        -8.06502        -1.76765
   C        2.67322        -7.77907        -1.41410
   C        4.48269        -8.31883        -4.21593
   O        4.24797        -9.51002        -4.20873
   C        4.82033        -7.40545        -5.28834
   C        4.99189        -6.12319        -4.71819
   C        5.34510        -5.19834        -5.76929
   O        5.58829        -4.00967        -5.74694
   N        5.37290        -5.99353        -6.92860
   C        5.63392        -5.41643        -8.22600
   C        4.34574        -5.17693        -9.00910
   C        5.05245        -7.30410        -6.66135
   C        4.98559        -8.31744        -7.65007
   C        4.60544        -9.58772        -7.36317
   C        4.50731       -10.58536        -8.36755
   S        3.89982       -12.19885        -8.02787
   C        4.13591       -12.50361        -9.74199
   N        4.62383       -11.46921       -10.37200
   N        4.82326       -10.42770        -9.62715
   C        3.77085       -13.73789       -10.34604
   C        3.86196       -13.94865       -11.67878
   C        3.51999       -15.15928       -12.34210
   C        2.62329       -16.12835       -12.01833
   C        2.75056       -17.45258       -12.71632
   O        3.44414       -17.68742       -13.67527
   C        1.89672       -18.36016       -11.94546
   C        1.59485       -19.68939       -11.93847
   S        0.44835       -20.04885       -10.66907
   C        0.38252       -18.39732       -10.17234
   C        1.19959       -17.62145       -10.93389
   C        1.54627       -16.21503       -11.04567
   C        0.81685       -15.20757       -10.47237
   C       -0.25478       -15.48487        -9.59628
   N       -1.11801       -15.68952        -8.86928
   C        0.98198       -13.83034       -10.70964
   N        1.04783       -12.69607       -10.87119
  Cl        2.18577       -20.90156       -12.96286
   H        4.63809         4.64446         2.72763
   H        5.08764        -1.10638         2.41132
   H        4.79035        -7.63933        -1.01139
   H        4.29014        -9.14377        -1.84177
   H        2.51081        -6.70863        -1.32215
   H        2.42941        -8.25024        -0.46661
   H        2.01390        -8.17587        -2.18237
   H        6.31375        -6.06550        -8.78394
   H        6.13142        -4.46131        -8.03594
   H        3.81564        -6.11027        -9.18412
   H        4.57913        -4.72262        -9.96776
   H        3.69425        -4.50486        -8.45594
   H        5.23313        -8.07044        -8.67185
   H        4.34587        -9.87456        -6.35343
   H        3.42897       -14.51561        -9.67709
   H        4.29628       -13.16308       -12.28198
   H        4.09745       -15.38001       -13.23652
   H       -0.24739       -18.12163        -9.35007
*
