# ORCA input file
# SCF done       -189.193252194841          0.000894697967
! CAM-B3LYP def2-SVP def2/J RIJCOSX Grid4 TightSCF
%maxcore 5000
%tddft
    Mode sTDDFT
    Ethresh 5.0
    maxcore 5000
end

%pal
  nprocs 6
  end
* xyz 0 1
   C        3.49729         3.06469        -3.48892
   C        2.90698         4.09566        -4.15318
   S        2.88903         3.81199        -5.85451
   C        3.69437         2.27114        -5.67299
  Cl        4.05810         1.30084        -7.01209
   C        3.94750         2.01863        -4.35725
   C        4.56782         0.94275        -3.57716
   O        5.05981        -0.07873        -3.99255
   C        4.51552         1.42977        -2.15772
   C        3.80530         2.70669        -2.12120
   C        3.42972         3.42565        -1.02039
   C        2.72614         4.64336        -1.14529
   N        2.15898         5.63645        -1.23151
   C        3.65698         3.05438         0.32063
   N        3.79551         2.80147         1.43162
   C        5.18743         0.88584        -1.11600
   C        5.87616        -0.38487        -1.08663
   C        7.08748        -0.47485        -0.40788
   C        7.79875        -1.66578        -0.34109
   N        9.09405        -1.56799         0.28285
   O        9.66929        -0.50554         0.17242
   O        9.54184        -2.52472         0.87958
   C        7.30841        -2.83737        -0.94844
   C        6.08983        -2.71803        -1.63988
   C        5.37804        -1.54575        -1.69530
   C        7.94313        -4.13701        -1.02421
   C        8.51945        -4.85386        -0.03841
   C        9.06419        -6.14884        -0.29030
   N        9.76131        -6.87505         0.64299
   C       10.12933        -6.44676         1.97154
   C       11.23779        -5.39750         1.95430
   C       10.17991        -8.12352         0.13511
   O       10.81230        -8.93636         0.77729
   C        9.66935        -8.13984        -1.21603
   C        8.99625        -6.91448        -1.44966
   C        8.46277        -6.96820        -2.78933
   O        7.80982        -6.16843        -3.43460
   N        8.84486        -8.23067        -3.28222
   C        8.51962        -8.57987        -4.64520
   C        9.71792        -8.41810        -5.57721
   C        9.57344        -8.93807        -2.35045
   C       10.13893       -10.24325        -2.41998
   C       10.09622       -11.12941        -3.43754
   C       10.69232       -12.43746        -3.41452
   C       11.44086       -12.97270        -2.39756
   S       12.00265       -14.55418        -2.73749
   C       11.25290       -14.53993        -4.26733
   C       10.58798       -13.36645        -4.51331
   C        9.84693       -13.12457        -5.74674
   O        9.09242       -12.21412        -5.98037
   O       10.11500       -14.10002        -6.67369
   C        9.43562       -14.07810        -7.83685
   C        9.69339       -14.97218        -8.80728
   C        8.97518       -14.95946       -10.03191
   C        9.05785       -15.83382       -11.06756
   C        8.48336       -15.42657       -12.39077
   O        7.73073       -14.50457       -12.59033
   C        9.08381       -16.35745       -13.35219
   C        9.09902       -16.53017       -14.70386
   S       10.09973       -17.89702       -15.13487
   C       10.47490       -18.22504       -13.48243
   C        9.87165       -17.33120       -12.65400
   C        9.75732       -17.09796       -11.22488
   C       10.09265       -18.01992       -10.27006
   C       10.74750       -19.22209       -10.61571
   N       11.29492       -20.19618       -10.87531
   C        9.75936       -17.95489        -8.90229
   N        9.49215       -17.98754        -7.78647
  Cl        8.30284       -15.61282       -15.88413
   H        2.48646         5.00246        -3.76598
   H        5.27409         1.46809        -0.20597
   H        7.51667         0.40300         0.05384
   H        5.70553        -3.59742        -2.13369
   H        4.42608        -1.52252        -2.19856
   H        7.84429        -4.60392        -1.99855
   H        8.57464        -4.48119         0.97103
   H       10.47894        -7.34763         2.48445
   H        9.24631        -6.06520         2.49240
   H       12.10304        -5.77900         1.41744
   H       11.53593        -5.16926         2.97376
   H       10.90397        -4.47929         1.47798
   H        7.73263        -7.88164        -4.94679
   H        8.11549        -9.59322        -4.68680
   H       10.02244        -7.37479        -5.61206
   H        9.44558        -8.73728        -6.57908
   H       10.56288        -9.01322        -5.23861
   H       10.64975       -10.50709        -1.50303
   H        9.58641       -10.89795        -4.35588
   H       11.69565       -12.51897        -1.46115
   H       11.31838       -15.39533        -4.91001
   H        8.66806       -13.31528        -7.92333
   H       10.47598       -15.69705        -8.64881
   H        8.32416       -14.10849       -10.20384
   H       11.12047       -19.04678       -13.24386
*
