# ORCA input file
# SCF done       -165.936138148838          0.000908593094
! CAM-B3LYP def2-SVP def2/J RIJCOSX Grid4 TightSCF
%maxcore 5000
%tddft
    Mode sTDDFT
    Ethresh 5.0
    maxcore 5000
end

%pal
  nprocs 6
  end
* xyz 0 1
   C        4.37523         2.65442        -0.17074
   C        3.71765         3.66511         0.46043
   S        2.55409         3.05095         1.57593
   C        2.95781         1.39564         1.18734
  Cl        2.17183         0.09571         1.93585
   C        3.94053         1.35383         0.24283
   C        4.68576         0.31700        -0.47748
   O        4.58270        -0.88135        -0.36159
   C        5.65576         1.07773        -1.33444
   C        5.41136         2.50946        -1.17061
   C        5.98504         3.54134        -1.85942
   C        5.62603         4.88268        -1.60270
   N        5.34541         5.97626        -1.40139
   C        6.94256         3.41154        -2.88662
   N        7.71021         3.37125        -3.73844
   C        6.70696         0.53352        -1.99036
   C        6.94915        -0.87520        -2.21149
   C        8.25210        -1.35732        -2.14720
   C        8.53573        -2.70963        -2.29061
   N        9.93813        -3.05205        -2.27604
   O       10.71623        -2.15647        -2.53404
   O       10.27379        -4.19007        -2.02779
   C        7.50932        -3.63616        -2.55702
   C        6.22312        -3.10539        -2.75051
   C        5.93406        -1.77687        -2.55923
   C        7.63634        -5.07119        -2.71367
   C        8.26180        -5.92866        -1.88553
   C        8.28971        -7.33500        -2.08036
   S        7.54688        -8.13722        -3.43581
   C        8.05312        -9.72007        -2.90915
   C        8.78808        -9.62432        -1.73418
   C        8.90695        -8.27859        -1.28558
   S        9.84104        -8.14789         0.16556
   C       10.09434        -9.86648         0.14854
   C        9.50427       -10.51331        -0.87951
   C        7.68299       -10.87523        -3.67827
   C        7.33786       -10.74681        -5.02519
   C        6.97121       -11.84398        -5.78128
   N        6.60233       -11.57508        -7.15108
   O        7.05689       -10.57063        -7.65501
   O        5.85784       -12.34865        -7.71374
   C        6.92878       -13.14231        -5.23168
   C        7.26688       -13.24840        -3.87327
   C        7.62596       -12.16029        -3.11668
   C        6.60183       -14.31125        -6.00644
   C        6.08253       -15.45002        -5.49148
   C        5.75563       -16.55729        -6.31324
   C        5.05441       -17.67537        -5.98111
   C        5.12365       -18.85583        -6.90103
   O        5.57647       -18.86501        -8.01982
   C        4.57940       -19.96814        -6.11477
   C        4.40635       -21.31100        -6.26576
   S        3.67136       -21.99754        -4.83570
   C        3.60063       -20.45898        -4.05639
   C        4.11619       -19.48113        -4.84850
   C        4.29829       -18.04006        -4.79645
   C        3.69170       -17.23281        -3.86989
   C        2.96747       -17.78156        -2.78917
   N        2.39477       -18.20362        -1.88905
   C        3.62151       -15.82540        -3.88810
   N        3.48798       -14.68612        -3.84058
  Cl        4.80608       -22.27381        -7.60066
   H        3.83669         4.72507         0.35382
   H        7.48095         1.19405        -2.36303
   H        9.07321        -0.68113        -1.95670
   H        5.42994        -3.78483        -3.02363
   H        4.92783        -1.42183        -2.70848
   H        7.06322        -5.48491        -3.53640
   H        8.77859        -5.58408        -1.00187
   H       10.69036       -10.29735         0.92972
   H        9.59782       -11.57150        -1.03686
   H        7.35186        -9.77612        -5.50002
   H        7.26034       -14.22332        -3.41278
   H        7.83928       -12.29154        -2.06884
   H        6.72196       -14.25129        -7.07950
   H        5.88158       -15.52627        -4.43424
   H        6.15060       -16.55165        -7.32434
   H        3.19050       -20.39124        -3.06847
*
