# ORCA input file
# SCF done       -156.138647605219          0.000605840590
! CAM-B3LYP def2-SVP def2/J RIJCOSX Grid4 TightSCF
%maxcore 5000
%tddft
    Mode sTDDFT
    Ethresh 5.0
    maxcore 5000
end

%pal
  nprocs 6
  end
* xyz 0 1
   C        3.03442         1.11701        -1.99847
   N        2.77853         1.56539        -0.74001
   C        3.33408         1.02670         0.47598
   C        4.80661         1.39567         0.63457
   C        1.92283         2.68805        -0.75705
   O        1.54966         3.25896         0.25205
   C        1.65624         2.90381        -2.15655
   C        2.36787         1.90287        -2.89487
   C        2.10215         2.11375        -4.30301
   O        2.47300         1.53867        -5.30134
   N        1.24875         3.23621        -4.32387
   C        0.71115         3.73523        -5.56576
   C       -0.72566         3.27070        -5.79370
   C        0.97424         3.70766        -3.05846
   C        0.13692         4.82802        -2.80747
   C       -0.15125         5.25386        -1.55317
   C       -1.00218         6.35379        -1.25845
   S       -1.39058         6.71579         0.40343
   C       -2.42592         8.02830        -0.05523
   C       -2.42529         8.19661        -1.44253
   C       -1.63560         7.23801        -2.10226
   C       -3.03146         9.30820        -2.16523
   O       -3.22978         9.32928        -3.35479
   C       -3.18872         8.69038         0.94655
   C       -4.37596         9.30120         0.72587
   C       -5.16117         9.93401         1.73167
   S       -6.76883        10.47673         1.33137
   C       -7.06636        11.01054         2.95447
   C       -5.93725        10.81129         3.75076
   C       -4.88236        10.19296         3.05329
   C       -5.76398        11.29639         5.11655
   O       -4.88925        10.93990         5.86485
   C       -8.37131        11.47346         3.27881
   C       -8.93738        11.42557         4.50649
   C      -10.27402        11.83716         4.78201
   S      -10.97846        11.47199         6.32057
   C      -12.50860        12.13012         5.84274
   C      -13.57650        12.14747         6.80652
   O      -14.71945        12.50052         6.60758
   C      -12.44947        12.64067         4.54256
   C      -11.17738        12.49571         3.97194
   C      -13.53401        13.29809         3.84736
   C      -14.82075        12.91809         3.76279
   C      -15.85669        13.90393         3.30099
   O      -15.64987        14.93152         2.70565
   C      -17.11888        13.34514         3.79249
   C      -18.42528        13.73064         3.85896
   S      -19.38726        12.49922         4.64062
   C      -18.01889        11.47303         4.85947
   C      -16.89037        12.05000         4.36759
   C      -15.49146        11.70895         4.22951
   C      -14.97043        10.45056         4.32966
   C      -13.65425        10.09815         3.97406
   N      -12.60687         9.75257         3.65474
   C      -15.75864         9.36034         4.75677
   N      -16.38435         8.46693         5.11065
  Cl      -19.12020        15.16897         3.29776
   H        3.66694         0.26476        -2.16457
   H        3.21218        -0.06090         0.47680
   H        2.75062         1.45366         1.29621
   H        5.39356         0.99941        -0.19121
   H        5.19158         0.98607         1.56422
   H        4.92161         2.47666         0.65548
   H        1.35408         3.33270        -6.35380
   H        0.77602         4.82700        -5.58326
   H       -0.76235         2.18460        -5.82471
   H       -1.09199         3.65795        -6.74046
   H       -1.38051         3.61574        -4.99640
   H       -0.28099         5.34161        -3.66024
   H        0.26776         4.72695        -0.70592
   H       -1.53137         7.23651        -3.17201
   H       -3.26233        10.18716        -1.53251
   H       -2.80704         8.61734         1.95548
   H       -4.81425         9.27706        -0.26210
   H       -3.94294         9.97535         3.52788
   H       -6.49173        12.07478         5.41625
   H       -8.96578        11.80441         2.43824
   H       -8.39847        10.99027         5.33563
   H      -13.26096        11.78237         7.80221
   H      -10.94713        12.83344         2.97802
   H      -13.27905        14.23317         3.35777
   H      -18.13940        10.52677         5.34845
*
