# ORCA input file
# SCF done       -208.164654048362          0.000928481938
! CAM-B3LYP def2-SVP def2/J RIJCOSX Grid4 TightSCF
%maxcore 5000
%tddft
    Mode sTDDFT
    Ethresh 5.0
    maxcore 5000
end

%pal
  nprocs 6
  end
* xyz 0 1
   C       -0.50438        -4.94170         9.76888
   C        0.15847        -4.44166        10.87652
   C       -0.57360        -4.22553        12.04626
   C        0.08525        -3.72569        13.19668
   N        0.62562        -3.32337        14.12240
   C       -1.95313        -4.50022        12.10581
   C       -2.66988        -4.27324        13.30485
   N       -3.27244        -4.09815        14.26290
   C       -2.61597        -5.00427        10.98513
   C       -1.88143        -5.21953         9.83928
   C       -2.35025        -5.76623         8.54193
   O       -3.49672        -6.06698         8.28357
   C       -1.13781        -5.88859         7.71069
   C       -0.03528        -5.27873         8.42555
   C        1.19570        -4.95998         7.91391
   C        2.21454        -4.32210         8.65240
   N        3.07712        -3.80797         9.20786
   C        1.58370        -5.15691         6.57079
   N        1.95493        -5.25573         5.48902
   C       -0.98465        -6.61630         6.55304
   C       -1.94830        -7.17378         5.70262
   C       -3.31671        -6.93535         5.56053
   C       -3.90839        -7.65380         4.53936
   C       -2.97396        -8.48549         3.88126
   S       -1.38897        -8.33689         4.50376
   C       -3.49008        -9.27455         2.83545
   C       -4.86126        -9.09257         2.56042
  Si       -5.60395        -7.85617         3.76130
   C       -6.84348        -8.63372         4.92706
   C       -6.22429        -6.29510         2.93785
   C       -5.26474        -9.89691         1.50768
   C       -4.25097       -10.70247         0.99197
   S       -2.74272       -10.45747         1.83424
   C       -4.35383       -11.64158        -0.06482
   C       -3.29216       -12.52836        -0.36199
   C       -3.39276       -13.53750        -1.38267
   N       -2.36684       -14.36897        -1.59007
   C       -1.27448       -14.25945        -0.87335
   C       -1.16969       -13.24742         0.13416
   N       -2.16805       -12.42706         0.35517
   C        0.01262       -13.11986         0.90468
   N        0.98145       -13.03818         1.50961
   C       -0.20089       -15.15110        -1.11799
   N        0.68068       -15.85843        -1.30244
   C       -4.54048       -13.68397        -2.19760
   C       -5.58586       -12.76506        -1.93842
   C       -5.50246       -11.77961        -0.88145
   N       -6.61278       -11.04559        -0.80992
   S       -7.64671       -11.52994        -1.93725
   N       -6.75204       -12.69652        -2.58011
   C       -4.61433       -14.70133        -3.18112
   C       -5.60307       -14.87968        -4.14732
   C       -5.40944       -15.99262        -4.94900
   C       -4.24990       -16.69431        -4.56034
   S       -3.39549       -15.94757        -3.26926
   C       -3.99747       -17.88095        -5.27257
   C       -4.89271       -18.18030        -6.31724
  Si       -6.23161       -16.86591        -6.39183
   C       -7.92061       -17.55839        -5.98903
   C       -6.17792       -15.85443        -7.96633
   C       -4.56006       -19.37655        -6.93161
   C       -3.48100       -20.03389        -6.34721
   S       -2.79857       -19.08343        -5.04098
   C       -2.94984       -21.27775        -6.73932
   C       -2.20650       -22.15410        -5.99937
   C       -1.35567       -23.16406        -6.67239
   O       -1.35800       -23.46262        -7.84375
   C       -0.46656       -23.68872        -5.60630
   C        0.58394       -24.57393        -5.71825
   C        1.29349       -24.90345        -4.56136
   C        0.93899       -24.33089        -3.32481
   C       -0.13264       -23.44156        -3.22070
   C       -0.83926       -23.12857        -4.36816
   C       -2.01880       -22.28688        -4.57321
   C       -2.92940       -21.96728        -3.59918
   C       -4.20853       -21.43998        -3.87422
   N       -5.27877       -21.06602        -4.05534
   C       -2.74110       -22.23215        -2.22747
   N       -2.63014       -22.41769        -1.10047
   C        1.68060       -24.66786        -2.16530
   N        2.27637       -24.93544        -1.22506
   C        2.37276       -25.81672        -4.63280
   N        3.24410       -26.55526        -4.71473
   H        1.21482        -4.22490        10.86891
   H       -3.67246        -5.22359        11.01574
   H        0.03675        -6.82868         6.25700
   H       -3.84477        -6.24775         6.19345
   H       -6.47436        -9.56055         5.36293
   H       -7.78026        -8.86704         4.42494
   H       -7.08365        -7.96834         5.75392
   H       -5.48893        -5.86132         2.26256
   H       -6.47480        -5.53082         3.67074
   H       -7.12391        -6.48012         2.35434
   H       -6.26135        -9.92533         1.10784
   H       -6.42914       -14.19849        -4.23514
   H       -7.89775       -18.20539        -5.11379
   H       -8.31699       -18.15056        -6.81153
   H       -8.64411       -16.77055        -5.78873
   H       -5.18172       -15.47017        -8.17881
   H       -6.84539       -14.99684        -7.91296
   H       -6.48528       -16.43931        -8.83087
   H       -5.10580       -19.80685        -7.75242
   H       -3.09568       -21.55322        -7.77964
   H        0.84919       -25.00266        -6.67268
   H       -0.37678       -23.01548        -2.26023
*
