# ORCA input file
# SCF done       -197.781279224935          0.000565613459
! CAM-B3LYP def2-SVP def2/J RIJCOSX Grid4 TightSCF
%maxcore 5000
%tddft
    Mode sTDDFT
    Ethresh 5.0
    maxcore 5000
end

%pal
  nprocs 6
  end
* xyz 0 1
   C        7.09383        -2.26575         2.27868
   C        5.72981        -2.11939         2.38829
   C        5.32350        -0.73851         2.28026
   N        4.04943        -0.36665         2.35561
   C        3.16097        -1.32206         2.53700
   C        1.74140        -0.91117         2.61756
   O        1.38708         0.24613         2.52130
   C        0.78351        -2.01248         2.82285
   C        1.14294        -3.29487         2.93138
   C        2.53889        -3.76512         2.85927
   O        2.82958        -4.93530         2.96537
   C        3.55801        -2.69743         2.64910
   N        4.80731        -3.08196         2.57558
   C        6.39824         0.13692         2.09109
   S        7.87752        -0.75962         2.04949
   C        6.27404         1.53239         1.95873
   C        7.27357         2.47710         1.76878
   C        6.75295         3.76278         1.69237
   C        5.34557         3.78678         1.82226
   S        4.66399         2.23410         2.03783
   C        4.91752         5.12825         1.73874
   C        6.04396         5.96289         1.56222
   C        7.23073         5.12125         1.49205
   C        8.50964         5.51118         1.22782
   C        9.57338         4.58408         1.18611
   N       10.43620         3.82951         1.15745
   C        8.86050         6.84394         0.91738
   N        9.16803         7.90613         0.61727
   C        5.72364         7.31235         1.51843
   C        4.35122         7.51540         1.63684
   S        3.45805         6.00810         1.80854
   C        3.68121         8.75090         1.63491
   C        4.25435        10.03035         1.70072
   C        3.27903        11.08756         1.68589
   N        3.64784        12.36640         1.78388
   C        4.93448        12.61084         1.90376
   C        5.34201        14.03279         2.05435
   O        4.54279        14.92702         2.21926
   C        6.79775        14.26569         2.01120
   C        7.70375        13.28312         2.02328
   C        7.35206        11.85236         2.08192
   O        8.17531        10.98457         2.26995
   C        5.90346        11.56032         1.91771
   N        5.55742        10.29617         1.81217
   C        1.95936        10.61605         1.60386
   S        1.95139         8.87986         1.57239
   C        0.77912        11.37762         1.56474
   C        0.67780        12.76274         1.46873
   C       -0.64634        13.17936         1.46053
   C       -1.56450        12.11052         1.56443
   S       -0.79335        10.58982         1.64166
   C       -2.87152        12.63505         1.59488
   C       -2.79785        14.04256         1.51578
   C       -1.40073        14.42321         1.36615
   C       -0.91528        15.66158         1.07517
   C        0.45469        15.90728         0.82814
   N        1.55181        16.12600         0.58074
   C       -1.75715        16.78164         0.88723
   N       -2.42081        17.69454         0.68990
   C       -4.04281        14.65649         1.58865
   C       -5.06836        13.72672         1.70003
   S       -4.47809        12.06968         1.71689
   C       -6.44703        14.01005         1.79927
   C       -7.03189        15.26435         2.01794
   C       -8.47628        15.20335         2.05213
   N       -9.20691        16.31861         2.23349
   C       -8.54816        17.43410         2.41653
   C       -9.35425        18.67567         2.59340
   O      -10.56454        18.67758         2.57749
   C       -8.56895        19.90951         2.78332
   C       -7.23509        19.93808         2.85498
   C       -6.38688        18.73465         2.76129
   O       -5.19092        18.76689         2.95201
   C       -7.11433        17.47958         2.44878
   N       -6.38241        16.40905         2.23380
   C       -8.95521        13.92444         1.87864
   S       -7.68414        12.80364         1.67189
   H        7.66362        -3.17131         2.32165
   H       -0.25379        -1.71106         2.88166
   H        0.40831        -4.07455         3.08214
   H        8.31393         2.21470         1.69791
   H        6.41240         8.13224         1.41846
   H        7.09368        15.30600         2.00473
   H        8.76469        13.49352         2.02705
   H        1.54862        13.39230         1.42241
   H       -4.23452        15.71451         1.58050
   H       -9.15748        20.81256         2.87569
   H       -6.69815        20.86421         3.01006
   H       -9.97627        13.60217         1.86427
*
