# ORCA input file
# SCF done       -160.743184920057          0.000406653302
! CAM-B3LYP def2-SVP def2/J RIJCOSX Grid4 TightSCF
%maxcore 5000
%tddft
    Mode sTDDFT
    Ethresh 5.0
    maxcore 5000
end

%pal
  nprocs 6
  end
* xyz 0 1
   O        0.16747         1.84281         3.92923
   C       -0.15689         1.83926         2.60883
   N       -0.50779         0.66514         2.17169
   C       -0.41540        -0.16685         3.25411
   C        0.00381         0.57853         4.33128
   C       -0.73268        -1.58829         3.17924
   O       -0.66233        -2.35352         4.10515
   C       -0.09483         3.04335         1.85040
   C       -0.37500         3.18580         0.50666
   C       -0.21227         4.50837         0.09248
   C        0.19148         5.36218         1.13759
   S        0.37247         4.54140         2.62194
   C        0.33235         6.67778         0.62994
   C        0.01903         6.65265        -0.74425
   C       -0.33619         5.29370        -1.12495
   C       -0.71167         4.85749        -2.36104
   C       -0.79620         5.72678        -3.46996
   N       -0.86864         6.42506        -4.37650
   C       -1.04430         3.51036        -2.61967
   N       -1.31812         2.41988        -2.84281
   C        0.13016         7.90045        -1.34228
   C        0.52086         8.87944        -0.43582
   S        0.75146         8.23962         1.18139
   C        0.72925        10.25642        -0.71551
   C        1.08974        11.17533         0.29555
   C        1.30154        12.57540         0.05478
   N        1.66461        13.36497         1.08792
   C        1.80489        12.85729         2.26818
   C        1.57859        11.47588         2.50974
   N        1.23789        10.68720         1.54427
   F        1.71342        10.95372         3.72337
   F        2.17575        13.66593         3.25232
   C        1.15949        13.13218        -1.23874
   C        0.81977        12.21054        -2.25478
   C        0.60028        10.80695        -2.01106
   N        0.28648        10.16196        -3.13616
   S        0.26757        11.19186        -4.36057
   N        0.65565        12.51774        -3.54258
   C        1.34627        14.50793        -1.55083
   C        1.56040        15.57294        -0.68466
   C        1.71236        16.77545        -1.36322
   C        1.62271        16.62944        -2.76214
   S        1.32083        15.01754        -3.23413
   C        1.81955        17.90105        -3.35498
   C        2.03062        18.85086        -2.33713
   C        1.95488        18.17660        -1.05064
   C        2.06694        18.74022         0.18514
   C        2.29931        20.12089         0.36665
   N        2.48849        21.23989         0.52761
   C        1.94063        17.98963         1.37466
   N        1.82817        17.39873         2.35014
   C        2.25147        20.13616        -2.83362
   C        2.20962        20.15548        -4.21265
   S        1.89061        18.58662        -4.91619
   C        2.40905        21.28922        -5.05140
   N        2.67236        22.50237        -4.66211
   C        2.78885        23.23477        -5.81198
   C        2.58097        22.39157        -6.87833
   O        2.34125        21.16483        -6.40375
   C        3.08902        24.66197        -5.80480
   O        3.20255        25.34090        -6.79182
   H        0.20231         0.32706         5.35261
   H       -1.05121        -1.90271         2.17069
   H       -0.67635         2.35712        -0.10671
   H       -0.05449         8.12271        -2.37698
   H        1.60151        15.44541         0.38034
   H        2.43745        21.02130        -2.25432
   H        2.58134        22.54943        -7.93701
   H        3.20625        25.06902        -4.78595
*
