# ORCA input file
# SCF done       -250.106503077588          0.000966063120
! CAM-B3LYP def2-SVP def2/J RIJCOSX Grid4 TightSCF
%maxcore 5000
%tddft
    Mode sTDDFT
    Ethresh 5.0
    maxcore 5000
end

%pal
  nprocs 6
  end
* xyz 0 1
   C        2.13709        -0.26586         7.01594
   C        1.43999         0.80749         6.53159
   C        1.97571         1.59315         5.50009
   C        3.19970         1.29442         4.96671
   C        3.94536         0.19656         5.44231
   C        5.21394        -0.11164         4.89992
   C        5.91189        -1.18389         5.38769
   C        5.35411        -1.98695         6.42550
   C        4.13442        -1.70826         6.97135
   C        3.40008        -0.60137         6.48951
   C        6.28031        -3.08924         6.74018
   O        6.17493        -3.93146         7.60107
   C        7.36591        -2.99166         5.71882
   C        7.23025        -1.71006         5.05136
   C        8.22673        -1.01160         4.42355
   C        9.56634        -1.44698         4.34218
   N       10.68130        -1.71244         4.28281
   C        8.04513         0.25954         3.84231
   N        7.94663         1.28179         3.32892
   C        8.17207        -4.05894         5.50767
   C        9.02757        -4.35271         4.38879
   C       10.14688        -5.17140         4.58511
   C       10.99696        -5.50994         3.55087
   C       10.71810        -5.05997         2.26542
   C        9.59459        -4.21887         2.07702
   C        8.74618        -3.87318         3.10018
   N        9.53154        -3.82556         0.75871
   C        8.54843        -2.93975         0.19954
   C       10.59354        -4.32286         0.04627
   O       10.74464        -4.11973        -1.13946
   C       11.38851        -5.17993         0.98866
   C       12.45865        -5.95197         0.62699
   C       12.96197        -7.12943         1.42100
   O       12.53717        -7.60642         2.45259
   N       13.99306        -7.67901         0.71106
   C       14.71069        -8.85187         1.12731
   C       14.22186        -6.97432        -0.45368
   C       13.28937        -5.91487        -0.55495
   C       13.39454        -5.05576        -1.64470
   C       14.36355        -5.28644        -2.60284
   C       15.25986        -6.35682        -2.50868
   C       15.19083        -7.20835        -1.39765
   C       16.22995        -6.62458        -3.56165
   C       16.86870        -5.60627        -4.29688
   C       17.77118        -5.89305        -5.38361
   N       18.29081        -4.86764        -6.10238
   C       18.01140        -3.64893        -5.75118
   C       17.21283        -3.36945        -4.61772
   N       16.65667        -4.31973        -3.92995
   C       18.09192        -7.21203        -5.76111
   C       17.48139        -8.22648        -5.00659
   C       16.57387        -7.93893        -3.91613
   N       16.11836        -9.06554        -3.34936
   S       16.77307       -10.32556        -4.08679
   N       17.65718        -9.54546        -5.16262
   C       18.98240        -7.53428        -6.86874
   C       18.72433        -8.65300        -7.66993
   C       19.56005        -9.02336        -8.70479
   C       20.69973        -8.26869        -8.96344
   C       20.91921        -7.10622        -8.18811
   C       20.10085        -6.73779        -7.14743
   N       22.03990        -6.44894        -8.65722
   C       22.56115        -5.21832        -8.12993
   C       22.56247        -7.08659        -9.74913
   O       23.54614        -6.69566       -10.34139
   C       21.74139        -8.33173        -9.96157
   C       22.05330        -9.32514       -10.84860
   C       21.56971       -10.74571       -10.73530
   O       20.80255       -11.24415        -9.93908
   N       22.23444       -11.46804       -11.68976
   C       22.03964       -12.87522       -11.90803
   C       23.03626       -10.65234       -12.45806
   C       22.96088        -9.32452       -11.97394
   C       23.65273        -8.33228       -12.66379
   C       24.41459        -8.68235       -13.75930
   C       24.49620       -10.00689       -14.22668
   C       23.79806       -11.01292       -13.54310
   C       25.33788       -10.26554       -15.36109
   C       25.29897       -11.26691       -16.28225
   C       26.29149       -11.43279       -17.33878
   C       27.53926       -10.86966       -17.37941
   C       28.46898       -11.08821       -18.41842
   N       29.26899       -11.22028       -19.23112
   C       28.10019       -10.02998       -16.39291
   N       28.64667        -9.35880       -15.63790
   C       25.76630       -12.38343       -18.30880
   C       24.51372       -12.86278       -17.83473
   C       23.78206       -13.78335       -18.52857
   C       24.28108       -14.27713       -19.75408
   C       23.57584       -15.23357       -20.51079
   C       24.07821       -15.69559       -21.69684
   C       25.30786       -15.22140       -22.17807
   C       26.01787       -14.29260       -21.46733
   C       25.53084       -13.79602       -20.24089
   C       26.26449       -12.84143       -19.50048
   C       24.18779       -12.22377       -16.54791
   O       23.18690       -12.42616       -15.89392
   H        1.72974        -0.87431         7.81008
   H        0.47223         1.05694         6.94026
   H        1.41328         2.43739         5.13037
   H        3.61789         1.89831         4.17477
   H        5.59945         0.50409         4.10213
   H        3.73354        -2.32506         7.76189
   H        8.11482        -4.82816         6.27244
   H       10.36143        -5.52382         5.58241
   H       11.84798        -6.13847         3.74340
   H        7.86725        -3.27506         2.91514
   H        7.54762        -3.36485         0.29833
   H        8.78586        -2.81497        -0.85641
   H        8.58003        -1.96660         0.69542
   H       14.24759        -9.20935         2.04643
   H       15.75967        -8.61459         1.31692
   H       14.64927        -9.62639         0.36080
   H       12.71121        -4.23385        -1.76404
   H       14.41623        -4.63657        -3.46024
   H       15.88873        -8.02109        -1.29022
   H       18.43031        -2.85780        -6.35894
   H       17.03759        -2.35641        -4.28154
   H       17.84146        -9.23972        -7.47755
   H       19.33179        -9.89634        -9.28973
   H       20.30981        -5.86582        -6.55212
   H       21.80265        -4.43404        -8.16971
   H       23.41474        -4.93422        -8.74451
   H       22.88687        -5.35223        -7.09658
   H       21.26205       -13.20906       -11.22207
   H       22.96084       -13.42558       -11.70566
   H       21.73001       -13.05850       -12.93837
   H       23.61901        -7.30813       -12.33685
   H       24.95717        -7.91240       -14.28746
   H       23.86289       -12.03987       -13.85337
   H       26.10189        -9.50978       -15.50754
   H       22.83462       -14.13201       -18.14486
   H       22.62946       -15.59456       -20.13529
   H       23.53128       -16.42863       -22.27079
   H       25.69023       -15.59681       -23.11537
   H       26.96585       -13.92593       -21.83280
   H       27.20348       -12.49257       -19.89960
*
