# ORCA input file
# SCF done       -196.295625041948          0.000500909792
! CAM-B3LYP def2-SVP def2/J RIJCOSX Grid4 TightSCF
%maxcore 5000
%tddft
    Mode sTDDFT
    Ethresh 5.0
    maxcore 5000
end

%pal
  nprocs 6
  end
* xyz 0 1
   C        0.82716         5.63875         3.36122
   C        1.46159         4.44065         3.56369
   C        2.84240         4.31180         3.82466
   N        3.95589         4.13839         4.04291
   C        0.85335         3.16829         3.52514
   N        0.43780         2.09790         3.50026
   C        1.47496         6.94612         3.36222
   C        0.50792         7.93419         3.04564
   C        0.81033         9.27227         2.96530
   C        2.13095         9.65760         3.21338
   C        3.09002         8.66625         3.53267
   C        2.78394         7.31219         3.61066
   S        4.65261         9.36886         3.80493
   C        4.02320        10.94951         3.49505
   C        2.70466        10.95994         3.20058
   C       -0.79317         7.28475         2.84351
   O       -1.83986         7.83701         2.54449
   C       -0.58251         5.85180         3.08057
   C       -1.56267         4.89419         3.08993
   C       -2.94274         5.00495         2.85473
   C       -3.79997         3.90399         2.97552
   C       -5.11770         4.22653         2.71489
   C       -5.27494         5.59153         2.37436
   S       -3.81445         6.46700         2.39452
   C       -6.65117         5.82456         2.13928
   C       -7.36239         4.62578         2.33112
   C       -6.42163         3.57940         2.69518
   C       -6.70644         2.27404         2.96673
   C       -5.70570         1.34282         3.31798
   N       -4.89849         0.58232         3.60765
   C       -8.02142         1.76329         2.91804
   N       -9.08551         1.33820         2.88071
   C       -8.73494         4.76867         2.13710
   C       -9.08168         6.06262         1.79427
   S       -7.67434         7.11875         1.70854
   C      -10.38622         6.59273         1.53891
   C      -10.57074         7.90108         1.11343
   C      -11.82553         8.45139         0.88860
   C      -13.00467         7.74389         1.07856
   C      -12.87228         6.38723         1.49987
   C      -11.56581         5.81150         1.72486
   N      -11.59749         4.54399         2.11278
  Se      -13.25078         3.99449         2.21591
   N      -13.87452         5.54632         1.71552
   C      -14.28487         8.35039         0.87670
   C      -15.53614         7.81767         1.13173
   C      -16.56025         8.71655         0.84156
   C      -16.08663         9.94638         0.35161
   S      -14.38507         9.99482         0.25688
   C      -17.19340        10.79080         0.10378
   C      -18.37486        10.09734         0.43565
   C      -18.01371         8.77012         0.90811
   C      -18.85536         7.78261         1.32621
   C      -18.38575         6.52693         1.76870
   N      -18.01717         5.50268         2.12810
   C      -20.25735         7.94637         1.33734
   N      -21.39692         8.07079         1.34000
   C      -19.51977        10.85785         0.22252
   C      -19.22845        12.13485        -0.23368
   S      -17.49429        12.36770        -0.45526
   C      -20.17453        13.12334        -0.59127
   C      -19.99280        14.45509        -0.79746
   C      -18.91107        15.35717        -0.46083
   C      -18.12775        15.29099         0.66242
   C      -17.15142        16.25005         0.99651
   N      -16.33029        16.99251         1.29996
   C      -18.28218        14.29641         1.64968
   N      -18.40960        13.52242         2.48804
   C      -19.01082        16.50263        -1.35562
   C      -20.25784        16.44083        -2.03129
   C      -20.96787        15.20969        -1.63631
   O      -22.07447        14.84744        -1.96132
   C      -20.66083        17.41214        -2.91586
   C      -19.79115        18.48125        -3.15352
   C      -18.54354        18.52377        -2.48460
   C      -18.13843        17.54873        -1.58057
   S      -17.63114        19.92590        -2.94408
   C      -18.90177        20.43670        -4.00062
   C      -19.96262        19.60061        -4.01612
   H        0.05012         9.99778         2.72049
   H        3.55140         6.59880         3.85967
   H        4.69059        11.78725         3.55385
   H        2.14361        11.85003         2.98033
   H       -1.25870         3.88289         3.33193
   H       -3.44098         2.92718         3.24814
   H       -9.46693         3.98924         2.23696
   H       -9.70142         8.52231         0.95379
   H      -11.88409         9.47993         0.56304
   H      -15.66407         6.82260         1.51504
   H      -20.52593        10.52951         0.41166
   H      -21.17021        12.75157        -0.81508
   H      -21.61808        17.34907        -3.40957
   H      -17.17770        17.61531        -1.09666
   H      -18.77253        21.34638        -4.55418
   H      -20.84325        19.75619        -4.61254
*
