# ORCA input file
# SCF done       -204.256793481272          0.000349580032
! CAM-B3LYP def2-SVP def2/J RIJCOSX Grid4 TightSCF
%maxcore 5000
%tddft
    Mode sTDDFT
    Ethresh 5.0
    maxcore 5000
end

%pal
  nprocs 6
  end
* xyz 0 1
   C        0.85663         4.01108         2.97484
   C        1.42713         2.77837         2.79325
   C        2.79937         2.50755         2.98252
   N        3.90255         2.22237         3.12028
   C        0.75320         1.60788         2.38434
   N        0.28356         0.61453         2.05066
   C        1.57359         5.21935         3.37160
   C        0.65829         6.30049         3.41093
   C        1.02909         7.57921         3.74954
   C        2.37196         7.80403         4.06885
   C        3.28060         6.71906         4.02991
   C        2.90393         5.42646         3.68505
   S        4.88746         7.21611         4.46278
   C        4.32601         8.85159         4.68683
   C        3.00280         9.01928         4.45006
  Br        5.53753        10.18234         5.21296
   C       -0.67909         5.81073         3.04567
   O       -1.69726         6.47887         2.97350
   C       -0.53923         4.37252         2.79559
   C       -1.56174         3.51670         2.47597
   C       -2.92895         3.76752         2.28070
   C       -3.82866         2.73846         1.97251
   C       -5.12155         3.19571         1.80875
   C       -5.21758         4.59647         1.98939
   S       -3.73073         5.33556         2.36670
   C       -6.56796         4.96762         1.79052
   C       -7.32575         3.82058         1.48583
   C       -6.44105         2.66611         1.49365
   C       -6.77576         1.36584         1.26084
   C       -5.82086         0.32670         1.30261
   N       -5.05004        -0.52085         1.33835
   C       -8.09710         0.96334         0.96772
   N       -9.16576         0.62242         0.73270
   C       -8.67156         4.10244         1.25826
   C       -8.94441         5.45350         1.38701
   S       -7.51294         6.38652         1.80123
   C      -10.19956         6.10672         1.20022
   C      -10.37709         7.47393         1.35004
   C      -11.59308         8.12075         1.12756
   C      -12.74705         7.46277         0.72954
   C      -12.62105         6.05251         0.58629
   C      -11.36476         5.38304         0.82095
   N      -11.56812         4.09731         0.61148
   O      -12.84490         3.96900         0.27537
   N      -13.49604         5.12449         0.25225
   C      -13.97650         8.13197         0.45176
   C      -15.14867         7.57275        -0.02720
   C      -16.13928         8.53240        -0.22601
   C      -15.71965         9.83290         0.11246
   S      -14.10945         9.87141         0.66915
   C      -16.77725        10.73771        -0.14769
   C      -17.86898        10.00614        -0.65702
   C      -17.50321         8.60096        -0.72715
   C      -18.27330         7.58460        -1.20897
   C      -17.83087         6.24482        -1.25247
   N      -17.48470         5.15298        -1.28601
   C      -19.57375         7.82535        -1.70225
   N      -20.62780         8.04049        -2.09918
   C      -18.94582        10.81293        -0.99890
   C      -18.69267        12.15598        -0.75989
   S      -17.09814        12.40624        -0.06045
   C      -19.53912        13.26625        -0.97648
   C      -20.61611        13.35916        -1.80350
   C      -21.10658        12.53836        -2.89224
   C      -20.35892        11.77073        -3.74714
   C      -20.88722        11.11274        -4.87826
   N      -21.26307        10.56433        -5.81327
   C      -18.96036        11.62752        -3.66509
   N      -17.81866        11.50447        -3.66048
   C      -22.50463        12.89723        -3.10522
   C      -22.79700        14.06376        -2.35341
   C      -21.60595        14.45112        -1.57484
   O      -21.46005        15.41636        -0.86182
   C      -24.02904        14.67113        -2.38651
   C      -25.01973        14.09369        -3.18780
   C      -24.72264        12.91693        -3.91803
   C      -23.47472        12.30649        -3.89162
   S      -26.09428        12.36609        -4.82884
   C      -27.03448        13.70786        -4.23218
   C      -26.35860        14.52608        -3.39041
  Br      -28.81843        13.90123        -4.77489
   H        0.30641         8.37982         3.76843
   H        3.63554         4.63633         3.67194
   H        2.49173         9.96029         4.54056
   H       -1.30558         2.47143         2.35212
   H       -3.51428         1.71398         1.87825
   H       -9.43354         3.38693         1.00745
   H       -9.52868         8.07446         1.64443
   H      -11.63037         9.19231         1.26015
   H      -15.24358         6.51905        -0.21768
   H      -19.88853        10.45332        -1.36914
   H      -19.35059        14.14546        -0.36792
   H      -24.22333        15.56380        -1.81305
   H      -23.29479        11.40603        -4.45524
   H      -26.78515        15.39881        -2.93077
*
