# ORCA input file
# SCF done       -209.820356296088          0.000984297005
! CAM-B3LYP def2-SVP def2/J RIJCOSX Grid4 TightSCF
%maxcore 5000
%tddft
    Mode sTDDFT
    Ethresh 5.0
    maxcore 5000
end

%pal
  nprocs 6
  end
* xyz 0 1
   C       -3.45194         3.19456         3.33175
   C       -4.06052         4.24973         2.71220
   F       -3.72382         5.50508         3.03465
   C       -5.04707         4.03326         1.72868
   F       -5.62662         5.08707         1.13917
   C       -5.41104         2.76349         1.37788
   C       -4.80132         1.65537         1.99760
   C       -3.80348         1.87240         2.99197
   C       -3.17330         0.77601         3.62382
   C       -3.52642        -0.49999         3.26873
   C       -4.52616        -0.70464         2.27969
   C       -5.15617         0.33243         1.65431
   C       -4.73242        -2.14992         2.07413
   O       -5.54499        -2.64806         1.32529
   C       -3.79895        -2.82704         3.00830
   C       -3.04724        -1.80411         3.71826
   C       -2.01461        -1.99747         4.59919
   C       -1.47210        -3.24122         4.98673
   N       -0.96275        -4.20590         5.34650
   C       -1.31355        -0.94976         5.23464
   N       -0.70560        -0.14926         5.78873
   C       -3.70191        -4.16799         3.26864
   C       -4.24283        -5.27731         2.58967
   C       -4.88264        -5.40165         1.36174
   C       -5.16520        -6.72291         1.04985
   C       -4.75046        -7.63371         2.04845
   S       -3.99928        -6.85534         3.35777
   C       -5.08693        -8.94396         1.62642
   C       -5.70300        -8.86482         0.36341
   C       -5.77321        -7.46914        -0.04020
   C       -6.28697        -6.97538        -1.20161
   C       -6.86157        -7.81346        -2.18257
   N       -7.33561        -8.48445        -2.98186
   C       -6.27380        -5.60115        -1.52898
   N       -6.26152        -4.49675        -1.83430
   C       -6.04667       -10.11413        -0.14795
   C       -5.70434       -11.13578         0.71700
   S       -4.94790       -10.55382         2.18299
   C       -5.92003       -12.53217         0.46497
   C       -5.65938       -13.55233         1.39484
   N       -5.86718       -14.81880         1.12176
   C       -6.34174       -15.12849        -0.09406
   C       -6.61045       -14.10587        -1.02130
   N       -6.40624       -12.84261        -0.74771
   C       -6.57004       -16.51346        -0.39202
   C       -6.45442       -17.58129         0.47630
   C       -6.77977       -18.78949        -0.14207
   C       -7.13155       -18.62811        -1.49492
   S       -7.07239       -17.00161        -1.99782
   C       -7.45016       -19.89646        -2.04084
   C       -7.31618       -20.86214        -1.02366
   C       -6.87345       -20.20184         0.19483
   C       -6.57751       -20.80349         1.38189
   C       -6.70431       -22.20000         1.54425
   N       -6.82097       -23.33489         1.65797
   C       -6.13297       -20.08008         2.50912
   N       -5.78020       -19.49411         3.42873
   C       -7.59872       -22.14941        -1.46119
   C       -7.93073       -22.18464        -2.80930
   S       -7.92677       -20.57498        -3.52379
   C       -8.30088       -23.27515        -3.62338
   C       -8.17557       -24.61470        -3.40869
   C       -9.01822       -25.53238        -4.23048
   O       -9.63729       -25.23989        -5.22638
   C       -8.97225       -26.83068        -3.53293
   C       -9.67103       -27.97253        -3.80006
   C       -9.49815       -29.09446        -2.95928
   C       -8.60827       -29.00632        -1.84910
   C       -8.45397       -30.12444        -1.00514
   C       -9.14577       -31.27650        -1.25463
   C      -10.02160       -31.36388        -2.35581
   C      -10.19510       -30.29627        -3.19121
   F      -10.68618       -32.50559        -2.57616
   F       -8.99811       -32.33777        -0.45207
   C       -7.88888       -27.81372        -1.60458
   C       -8.06108       -26.74439        -2.44188
   C       -7.44073       -25.42021        -2.45718
   C       -6.23813       -25.11677        -1.87373
   C       -5.53784       -23.91754        -2.10513
   N       -4.93344       -22.95751        -2.28206
   C       -5.51703       -26.01216        -1.05497
   N       -4.88968       -26.70911        -0.39436
   H       -2.69795         3.37843         4.08114
   H       -6.16714         2.61364         0.62321
   H       -2.42664         0.97715         4.37446
   H       -5.90998         0.14277         0.90542
   H       -3.10631        -4.44724         4.12986
   H       -5.12648        -4.55461         0.74691
   H       -6.51911       -10.30839        -1.09294
   H       -5.27611       -13.33203         2.38282
   H       -7.00374       -14.32430        -2.00580
   H       -6.15292       -17.45238         1.49960
   H       -7.61524       -23.01866        -0.83003
   H       -8.82798       -23.02009        -4.53877
   H      -10.34836       -28.01811        -4.63917
   H       -7.78484       -30.07617        -0.16033
   H      -10.86956       -30.37825        -4.02914
   H       -7.22885       -27.77106        -0.75292
*
