# ORCA input file
# SCF done       -194.643087929267          0.000263716582
! CAM-B3LYP def2-SVP def2/J RIJCOSX Grid4 TightSCF
%maxcore 5000
%tddft
    Mode sTDDFT
    Ethresh 5.0
    maxcore 5000
end

%pal
  nprocs 6
  end
* xyz 0 1
   C        5.21344         0.69094        -0.45155
   C        4.35235         1.63983        -1.22086
   O        3.23092         1.40252        -1.62002
   C        5.13019         2.87495        -1.35424
   C        6.37411         2.69991        -0.74830
   C        6.49247         1.33576        -0.24024
   C        7.66728         0.76967         0.18844
   C        7.87556        -0.57933         0.52427
   N        8.16637        -1.65738         0.79604
   C        8.88621         1.46717         0.28418
   N        9.91915         1.96184         0.38625
   C        7.29438         3.75849        -0.72533
   C        6.96298         4.94268        -1.32758
   C        5.72157         5.13874        -1.97097
   C        4.76752         4.08225        -1.98322
   C        3.52448         4.27933        -2.61771
   C        3.24079         5.47511        -3.21847
   C        4.17921         6.51903        -3.21056
   C        5.39283         6.35556        -2.60025
   C        4.69403        -0.53675        -0.21963
   C        5.09968        -1.66880         0.55801
   S        5.38445        -1.60669         2.27710
   C        5.46260        -3.30710         2.37169
   C        5.31693        -3.91405         1.15146
   C        5.36853        -5.30005         0.93603
   N        5.40773        -6.42473         0.71176
   C        5.10423        -2.97486         0.09448
   N        4.99203        -3.28659        -1.24312
   C        5.64881        -2.34644        -2.10759
   C        7.00166        -2.19965        -2.02363
   C        7.60103        -1.04286        -2.57328
   C        8.90857        -0.58139        -2.49976
   C       10.05904        -1.42572        -2.04740
   C       10.52197        -2.35474        -3.19478
   N        9.54766        -3.39926        -3.43082
   C       11.26186        -0.69537        -1.42744
   N       12.14566        -0.06104        -2.40531
   C        8.88220         0.77660        -2.99825
   C        9.84345         1.71309        -3.09110
   C        9.55651         3.09519        -3.56712
   C        8.14199         3.32373        -4.00309
   C        7.19860         2.36622        -3.93176
   C        7.50871         1.08643        -3.41978
   C        6.74322        -0.04320        -3.18867
   C        5.38360        -0.34066        -3.43223
   C        4.85163        -1.47713        -2.90631
   C       10.55882         3.46338        -4.63313
   C       10.52611         4.55269        -5.40308
   C       11.46223         4.78752        -6.47554
   S       11.97091         6.39469        -6.89219
   C       12.99083         5.80671        -8.12769
   C       12.94470         4.44194        -8.24828
   C       13.66544         3.76811        -9.25268
   N       14.25171         3.26200       -10.09786
   C       12.05862         3.84774        -7.29607
   N       11.71007         2.51215        -7.21539
   C       12.41481         1.45731        -7.62069
   C       12.12027         0.12304        -7.52141
   C       13.21006        -0.79544        -7.94236
   O       14.28801        -0.45584        -8.38494
   C       12.71793        -2.15656        -7.67853
   C       11.43525        -2.07809        -7.14226
   C       11.02156        -0.67392        -7.03724
   C        9.78221        -0.28618        -6.57259
   C        9.25609         1.01192        -6.58483
   N        8.76945         2.05698        -6.59436
   C        8.81319        -1.15104        -6.02491
   N        7.97610        -1.77212        -5.54024
   C       10.73640        -3.25305        -6.82917
   C       11.34340        -4.46456        -7.03469
   C       12.64617        -4.57135        -7.56569
   C       13.36065        -3.38713        -7.90872
   C       14.65452        -3.49266        -8.45996
   C       15.21694        -4.72272        -8.65924
   C       14.51836        -5.89284        -8.31824
   C       13.26184        -5.82063        -7.78331
   H        8.24536         3.65393        -0.23089
   H        7.66381         5.76581        -1.31043
   H        2.81081         3.47071        -2.61623
   H        2.28825         5.62522        -3.70445
   H        3.93392         7.45524        -3.69010
   H        6.11606         7.15875        -2.59002
   H        3.74001        -0.68818        -0.72699
   H        5.62155        -3.78567         3.31791
   H        5.14492        -4.26590        -1.45399
   H        7.59865        -2.90067        -1.46040
   H        9.67209        -2.08816        -1.26430
   H       11.45232        -2.84477        -2.88863
   H       10.73317        -1.74101        -4.08920
   H        9.90837        -4.06765        -4.10302
   H        8.69535        -3.00238        -3.81764
   H       11.80310        -1.43380        -0.81489
   H       10.90401         0.08851        -0.75742
   H       12.56956        -0.76517        -3.00074
   H       12.89938         0.40322        -1.90744
   H       10.86754         1.47652        -2.83461
   H        9.74558         3.75952        -2.70488
   H        7.90229         4.30385        -4.38172
   H        6.18949         2.56781        -4.26031
   H        4.77574         0.34819        -3.99862
   H        3.80833        -1.71810        -3.03889
   H       11.37295         2.75871        -4.73818
   H        9.78607         5.32457        -5.24706
   H       13.57324         6.48461        -8.71970
   H       10.80328         2.36097        -6.78123
   H       13.38697         1.66772        -8.05726
   H        9.73157        -3.21722        -6.44431
   H       10.81263        -5.37509        -6.79484
   H       15.18030        -2.58708        -8.71792
   H       16.20675        -4.80382        -9.08294
   H       14.98278        -6.85360        -8.48446
   H       12.72095        -6.71890        -7.52247
*
