# ORCA input file
# SCF done       -226.518470005003          0.000754954481
! CAM-B3LYP def2-SVP def2/J RIJCOSX Grid4 TightSCF
%maxcore 5000
%tddft
    Mode sTDDFT
    Ethresh 5.0
    maxcore 5000
end

%pal
  nprocs 6
  end
* xyz 0 1
   C       -1.80248        -6.39629         5.51938
   C       -2.96718        -5.65871         5.69894
   O       -3.33509        -4.86918         4.65692
   C       -4.55235        -4.15465         4.73251
   C       -4.74026        -3.42773         3.41023
   C       -3.65953        -5.78481         6.89670
   C       -3.17327        -6.59356         7.91705
   C       -3.96859        -6.73454         9.18427
   C       -5.05037        -7.80178         9.01118
   C       -1.99305        -7.31326         7.73851
   O       -1.52169        -8.07820         8.79214
   C       -0.30162        -7.63534         9.36412
   C       -0.43819        -6.31214        10.11084
   C       -1.31847        -7.25298         6.50373
   C       -0.17775        -8.07869         6.14668
   C        0.09323        -9.30213         6.63600
   C        1.18364       -10.12784         6.20435
   C        1.88561       -10.97854         7.00525
   C        3.01739       -11.48128         6.26289
   C        3.97844       -12.37444         6.74488
   N        4.78917       -13.09573         7.12496
   C        3.01645       -10.92567         5.00604
   C        1.85162       -10.10385         4.88338
   C        1.36098        -9.57054         3.71202
   C        2.12707        -9.33299         2.46685
   C        1.22988        -8.98393         1.49474
   C       -0.09153        -8.98287         2.06888
   C       -0.00981        -9.30203         3.40387
   C       -1.26181        -8.69313         1.35698
   N       -2.21307        -8.44811         0.76171
   C        3.54814        -9.35855         2.39684
   C        4.27331        -9.47753         1.25961
   C        5.70181        -9.61309         1.20592
   C        6.50692        -9.48348         2.32468
   C        7.88188        -9.73715         2.23790
   C        8.86630        -9.72635         3.22899
   C        8.60797        -9.36751         4.65108
   C        8.22724       -10.62263         5.47505
   N        6.93134       -11.12024         5.05223
   C        9.75659        -8.62366         5.35002
   N       10.43111        -7.71354         4.43549
   C       10.09333       -10.13853         2.59264
   C       11.33950       -10.32565         3.07089
   C       12.46437       -10.74347         2.18473
   C       12.09247       -10.95755         0.75622
   C       10.84317       -10.77268         0.29150
   C        9.80970       -10.36708         1.16769
   C        8.46307       -10.12504         0.96590
   C        7.63401       -10.20026        -0.17569
   C        6.30473        -9.94912        -0.05079
   C       13.14346       -11.94623         2.80287
   C       12.96832       -13.19890         2.38277
   C       13.67016       -14.34289         2.92084
   C       14.19138       -15.33183         2.14766
   C       15.04800       -16.16550         2.97022
   C       15.78785       -17.26126         2.51360
   N       16.39921       -18.16492         2.15315
   C       15.03278       -15.68898         4.25143
   C       14.10200       -14.59289         4.31244
   C       13.59136       -14.03697         5.45866
   C       14.12758       -14.18343         6.82933
   C       13.52561       -13.24502         7.60415
   C       12.51434       -12.56394         6.81505
   C       12.53809       -13.05738         5.54063
   C       11.66101       -11.56600         7.29217
   N       10.97509       -10.71876         7.65727
   C       15.11218       -15.14309         7.27295
   C       16.14101       -14.81632         8.06831
   C       17.17605       -15.69774         8.57223
   C       17.51678       -16.91948         7.94544
   O       16.84658       -17.24400         6.80266
   C       17.30765       -18.30066         5.97715
   C       18.58321       -17.94584         5.22256
   C       18.49820       -17.72132         8.50549
   C       19.17501       -17.35784         9.66060
   C       20.24391       -18.25659        10.21443
   C       21.50975       -18.21070         9.35646
   C       18.86178       -16.14692        10.27380
   O       19.52285       -15.78947        11.43440
   C       20.50566       -14.78124        11.27576
   C       20.95892       -14.33892        12.65649
   C       17.87123       -15.31991         9.73461
   C       17.55411       -14.05790        10.42405
   C       17.21703       -13.98889        11.70156
   H       -1.29488        -6.32260         4.56979
   H       -4.51734        -3.43373         5.56204
   H       -5.38659        -4.84887         4.90490
   H       -3.91679        -2.73831         3.24576
   H       -5.67468        -2.87390         3.42075
   H       -4.75741        -4.14582         2.59514
   H       -4.57893        -5.24637         7.06670
   H       -4.43355        -5.77943         9.43783
   H       -3.30954        -7.03283         9.99877
   H       -5.71950        -7.54007         8.19422
   H       -5.63541        -7.90047         9.92274
   H       -4.59076        -8.76082         8.78581
   H        0.47256        -7.54084         8.59167
   H       -0.01403        -8.43308        10.05413
   H       -1.14825        -6.40372        10.92896
   H       -0.78433        -5.53382         9.43333
   H        0.52773        -6.02271        10.51585
   H        0.44569        -7.67514         5.35821
   H       -0.49528        -9.69441         7.45460
   H        1.68004       -11.21446         8.03271
   H        3.69457       -11.18875         4.21792
   H        1.44400        -8.70974         0.47900
   H       -0.83919        -9.43523         4.07058
   H        4.06123        -9.30017         3.34486
   H        3.75151        -9.55939         0.31500
   H        6.08760        -9.22138         3.28229
   H        7.72665        -8.71752         4.66124
   H        8.15267       -10.33035         6.52449
   H        9.03877       -11.36197         5.38853
   H        7.00868       -11.59890         4.16070
   H        6.56123       -11.77818         5.72928
   H       10.49423        -9.33508         5.72830
   H        9.33120        -8.11584         6.23078
   H        9.76687        -7.04351         4.06051
   H       11.14510        -7.19283         4.93347
   H       11.57937       -10.18212         4.11231
   H       13.20132        -9.92364         2.21815
   H       12.89451       -11.26524         0.10185
   H       10.61253       -10.92925        -0.75253
   H        8.06112       -10.46390        -1.13224
   H        5.65962       -10.01415        -0.91549
   H       13.78498       -11.73592         3.64754
   H       12.36065       -13.39027         1.50679
   H       14.06308       -15.45964         1.08860
   H       15.58992       -16.08451         5.07467
   H       13.69551       -13.06663         8.64944
   H       11.87049       -12.79270         4.74464
   H       14.95306       -16.16678         6.97626
   H       16.22442       -13.78097         8.37182
   H       16.49468       -18.46037         5.26280
   H       17.43332       -19.22191         6.55728
   H       18.42272       -17.04893         4.62927
   H       18.84524       -18.76015         4.55379
   H       19.40697       -17.76468         5.90902
   H       18.75479       -18.66619         8.05312
   H       19.87171       -19.28318        10.24743
   H       20.47857       -17.94326        11.23189
   H       21.30069       -18.54251         8.34173
   H       22.27524       -18.85679         9.77967
   H       21.90212       -17.19707         9.30787
   H       20.08887       -13.92943        10.72071
   H       21.35684       -15.17966        10.70202
   H       21.73449       -13.58326        12.56839
   H       21.34850       -15.18965        13.20869
   H       20.11584       -13.92721        13.20444
   H       17.62521       -13.15310         9.83046
   H       17.13527       -14.87400        12.30865
   H       17.01112       -13.04794        12.18414
*
