# ORCA input file
# SCF done       -235.013284783643          0.000947002160
! CAM-B3LYP def2-SVP def2/J RIJCOSX Grid4 TightSCF
%maxcore 5000
%tddft
    Mode sTDDFT
    Ethresh 5.0
    maxcore 5000
end

%pal
  nprocs 6
  end
* xyz 0 1
   C       -7.16568         5.48118        -8.66793
   C       -7.04191         4.81918        -7.47809
   C       -7.84977         5.07438        -6.34689
   N       -8.46894         5.24039        -5.39615
   C       -6.05274         3.86173        -7.17659
   N       -5.26417         3.10263        -6.82752
   C       -8.06866         6.58151        -8.95693
   C       -7.65510         7.21012       -10.16246
   C       -8.30308         8.30646       -10.67891
   C       -9.41652         8.79318        -9.98753
   C       -9.82883         8.15011        -8.79176
   C       -9.16850         7.04980        -8.26104
   S      -11.22666         8.92034        -8.11399
   C      -11.24665        10.07267        -9.40236
   C      -10.25674         9.89575       -10.30562
   C       -6.45943         6.52754       -10.69270
   O       -5.69275         6.92899       -11.52748
   C       -6.34507         5.28042        -9.85887
   C       -5.69462         4.13584       -10.16067
   C       -4.98841         3.84856       -11.37221
   N       -5.26202         4.41074       -12.52816
   C       -4.32520         3.97435       -13.39541
   C       -3.36177         3.08240       -12.72237
   C       -2.32458         2.62117       -13.66596
   O       -1.37843         1.90233       -13.44981
   C       -2.74102         3.26762       -14.92712
   C       -3.96556         4.08171       -14.71255
   N       -4.36343         4.65566       -15.87552
   C       -3.49717         4.25795       -16.76983
   C       -2.45992         3.38094       -16.24705
   C       -3.80956         2.93239       -11.44306
   C       -3.26238         2.14459       -10.38061
   C       -4.02316         1.49633        -9.47457
   C       -3.54067         0.83184        -8.31716
   C       -4.32705         0.36406        -7.26655
   C       -5.78810         0.45845        -7.23332
   O       -6.49499         0.71975        -8.18546
   C       -6.34316         0.20871        -5.88404
   C       -5.57847        -0.34739        -4.82383
   C       -6.32177        -0.48882        -3.67888
   S       -7.93965         0.06422        -3.85706
   C       -7.63772         0.46637        -5.49989
   C       -8.75041         1.01591        -6.33550
   F       -8.44241         2.17973        -6.92477
   F       -9.13251         0.17589        -7.30215
   F       -9.84028         1.25296        -5.58906
   C       -5.87008        -1.03786        -2.35862
   F       -5.64972        -2.35458        -2.40192
   F       -4.76339        -0.44993        -1.90836
   F       -6.81686        -0.84636        -1.42066
   C       -4.16088        -0.75965        -4.99581
   O       -3.61426        -1.56061        -4.28194
   C       -3.55711        -0.12814        -6.18266
   C       -2.19545        -0.04504        -6.41212
   S       -1.85348         0.65267        -7.96454
   C       -1.12829        -0.32429        -5.50043
   N       -1.22828        -0.02093        -4.22332
   C       -0.02779        -0.31586        -3.67308
   C        0.90940        -0.79152        -4.70127
   C        2.20459        -1.16861        -4.11439
   O        3.18672        -1.59146        -4.68104
   C        1.98137        -0.90084        -2.68057
   C        0.61064        -0.36200        -2.46210
   N        0.39492        -0.14032        -1.14232
   C        1.49287        -0.52064        -0.54393
   C        2.52052        -1.02176        -1.44422
   C        0.21105        -0.83600        -5.87402
   C        0.70503        -1.36456        -7.10517
   C       -0.00643        -2.03113        -8.03521
   C        0.58878        -2.62849        -9.19046
   C        1.84333        -3.11212        -9.34513
   C        2.93815        -3.39581        -8.42622
   C        2.84580        -3.81792        -7.12890
   C        3.95256        -4.25360        -6.36681
   N        4.81583        -4.65168        -5.72550
   C        1.63486        -3.96739        -6.42314
   N        0.67473        -4.13539        -5.81775
   C        4.16068        -3.41688        -9.22087
   C        3.81688        -3.42674       -10.59802
   C        2.35486        -3.34527       -10.73401
   O        1.68798        -3.40256       -11.73976
   C        4.76531        -3.48431       -11.59221
   C        6.10921        -3.51943       -11.21090
   C        6.44125        -3.48571        -9.83368
   C        5.48452        -3.43598        -8.82703
   S        8.15954        -3.51913        -9.60081
   C        8.41503        -3.58355       -11.31059
   C        7.27204        -3.57760       -12.03021
   H       -7.96243         8.77040       -11.59126
   H       -9.51711         6.58780        -7.35210
   H      -12.01207        10.82427        -9.40588
   H      -10.11380        10.51588       -11.17172
   H       -5.69742         3.34930        -9.41869
   H       -3.58479         4.57989       -17.79313
   H       -1.66569         2.94565       -16.82039
   H       -2.18192         2.06487       -10.34676
   H       -5.09834         1.46436        -9.58227
   H        1.58411        -0.44329         0.52574
   H        3.48238        -1.39085        -1.14814
   H        1.77828        -1.27772        -7.22354
   H       -1.08047        -2.11977        -7.94554
   H       -0.02603        -2.66274       -10.08544
   H        4.47709        -3.49901       -12.63180
   H        5.77975        -3.39914        -7.79137
   H        9.42256        -3.62189       -11.67680
   H        7.23578        -3.61254       -13.10396
*
