# ORCA input file
# SCF done       -196.265793317457          0.000854996541
! CAM-B3LYP def2-SVP def2/J RIJCOSX Grid4 TightSCF
%maxcore 5000
%tddft
    Mode sTDDFT
    Ethresh 5.0
    maxcore 5000
end

%pal
  nprocs 6
  end
* xyz 0 1
   C       -5.23508         4.97080        -3.20167
   C       -4.54596         5.37259        -4.31184
   C       -4.50039         6.70781        -4.76893
   N       -4.44154         7.77540        -5.18446
   C       -3.74166         4.51953        -5.09808
   N       -3.04565         3.88235        -5.75136
   C       -5.95288         5.82029        -2.26539
   C       -6.27224         5.06430        -1.10531
   C       -6.93559         5.60947        -0.03238
   C       -7.31480         6.95279        -0.11145
   C       -6.99964         7.69576        -1.27731
   C       -6.31938         7.15091        -2.35830
   S       -7.56822         9.32991        -1.15417
   C       -8.20625         9.01470         0.42152
   C       -8.00858         7.74636         0.84402
   C       -5.76676         3.68748        -1.25897
   O       -5.64546         2.84130        -0.41079
   C       -5.32762         3.60780        -2.69076
   C       -5.15180         2.46734        -3.38649
   C       -5.44866         1.14580        -2.90622
   N       -6.55158         0.84351        -2.26114
   C       -6.54859        -0.50617        -2.13332
   C       -5.37281        -1.09654        -2.79357
   C       -5.37686        -2.56173        -2.65716
   O       -4.58530        -3.36602        -3.09182
   C       -6.59757        -2.79835        -1.85481
   C       -7.28519        -1.51482        -1.57249
   N       -8.39714        -1.72601        -0.82188
   C       -8.43042        -3.01601        -0.61424
   C       -7.32903        -3.74630        -1.22164
   C       -4.63517        -0.04524        -3.26614
   C       -3.40200        -0.01710        -3.97472
   C       -2.55747         1.03814        -3.94581
   C       -1.38919         1.17446        -4.74492
   S       -0.26294         2.46474        -4.40867
   C        0.67166         2.06229        -5.81012
   C        0.10618         0.96672        -6.50302
   C       -1.04140         0.46420        -5.87038
   C        0.71519         0.56147        -7.71186
   C        1.81519         1.28842        -8.18531
   S        2.41766         0.61699        -9.67159
   C        1.17853        -0.58670        -9.65732
   C        0.36123        -0.50405        -8.58375
   C        2.34816         2.39536        -7.49139
   C        1.79220         2.74009        -6.26474
   C        3.42193         3.19936        -8.02843
   N        4.47550         3.48706        -7.29530
   C        5.30750         4.19844        -8.08972
   C        4.71494         4.40130        -9.41869
   C        5.61484         5.19187       -10.28023
   O        5.43924         5.55080       -11.42160
   C        6.77266         5.42165        -9.39505
   C        6.54020         4.79891        -8.06936
   N        7.59607         5.01889        -7.24879
   C        8.44297         5.72114        -7.95966
   C        7.99097         6.01165        -9.30704
   C        3.48616         3.79213        -9.39321
   C        2.48236         3.88300       -10.39865
   C        1.17612         3.55884       -10.23355
   C        0.22582         3.67058       -11.27514
   C       -1.05137         3.20046       -11.29881
   C       -1.88936         2.51805       -10.32827
   C       -1.91930         2.67681        -8.96655
   C       -2.82145         1.99077        -8.12602
   N       -3.51676         1.42948        -7.40470
   C       -1.13804         3.59515        -8.23481
   N       -0.54657         4.34102        -7.59325
   C       -2.87303         1.74745       -11.08773
   C       -2.82338         2.14871       -12.44759
   C       -1.73688         3.12517       -12.62380
   O       -1.41761         3.71254       -13.63099
   C       -3.66665         1.63565       -13.40378
   C       -4.59446         0.66923       -13.00574
   C       -4.62028         0.25538       -11.65210
   C       -3.77340         0.78042       -10.68312
   S       -5.83033        -0.96099       -11.39061
   C       -6.28656        -0.90067       -13.05806
   C       -5.56904        -0.01648       -13.78447
   H       -7.15924         5.01400         0.83888
   H       -6.10268         7.75191        -3.22607
   H       -8.69935         9.81186         0.94319
   H       -8.33689         7.37074         1.79604
   H       -4.80430         2.50248        -4.41339
   H       -9.22991        -3.45471        -0.04244
   H       -7.17582        -4.80553        -1.15982
   H       -3.15166        -0.91029        -4.52908
   H       -2.76180         1.86236        -3.27389
   H       -1.62350        -0.35549        -6.24803
   H        1.14251        -1.29485       -10.46168
   H       -0.46012        -1.17296        -8.40270
   H        2.19424         3.57712        -5.71886
   H        9.38088         6.03314        -7.53374
   H        8.53535         6.57440       -10.03922
   H        2.81746         4.29826       -11.34164
   H        0.84276         3.17806        -9.28398
   H        0.57160         4.09411       -12.21314
   H       -3.60854         1.97003       -14.42786
   H       -3.82947         0.42497        -9.66810
   H       -7.07641        -1.54294       -13.39601
   H       -5.71203         0.15607       -14.83571
*
