# ORCA input file
# SCF done       -192.896882403823          0.000980901515
! CAM-B3LYP def2-SVP def2/J RIJCOSX Grid4 TightSCF
%maxcore 5000
%tddft
    Mode sTDDFT
    Ethresh 5.0
    maxcore 5000
end

%pal
  nprocs 6
  end
* xyz 0 1
   C       -3.22593         0.22948         2.93301
   C       -2.58530        -0.96074         2.71613
   C       -1.84991        -1.64660         3.70640
   N       -1.24904        -2.24797         4.47719
   C       -2.49044        -1.61364         1.46667
   N       -2.31627        -2.16995         0.47842
   C       -3.16708         1.02222         4.15148
   C       -3.72698         2.29746         3.88460
   C       -3.78944         3.29019         4.83439
   C       -3.28599         3.00847         6.10708
   C       -2.73917         1.72726         6.36720
   C       -2.66891         0.72587         5.40573
   S       -2.18614         1.60104         8.00555
   C       -2.67656         3.22900         8.32253
   C       -3.23144         3.84605         7.25639
   C       -4.19449         2.35842         2.49087
   O       -4.65749         3.33779         1.94254
   C       -3.98597         0.98411         1.94611
   C       -4.53020         0.42575         0.82426
   C       -5.26418         1.08049        -0.18694
   O       -5.34881         2.41142        -0.24356
   C       -6.08776         2.76535        -1.31248
   C       -6.49118         1.63520        -1.99934
   C       -5.97221         0.53610        -1.28177
   C       -6.14554        -0.87568        -1.53886
   O       -5.79531        -1.78347        -0.82826
   C       -6.88728        -1.18613        -2.87330
   F       -6.27504        -0.62179        -3.92758
   F       -6.96846        -2.48983        -3.10885
   F       -8.14304        -0.70240        -2.85697
   C       -6.32288         4.15808        -1.47807
   N       -5.90452         5.02419        -0.49528
   C       -6.26016         6.27845        -0.86600
   C       -6.24025         7.61140        -0.48161
   C       -6.87094         8.32311        -1.51795
   N       -7.26239         7.44489        -2.50970
   C       -6.90929         6.19256        -2.13387
   C       -6.95073         4.85450        -2.51475
   C       -7.10313         9.71033        -1.55325
   C       -7.73850        10.39457        -2.54906
   C       -8.01020        11.77278        -2.46744
   O       -7.62882        12.49251        -1.40589
   C       -8.10316        13.76433        -1.55117
   C       -8.76934        13.87640        -2.75371
   C       -8.72739        12.60194        -3.36219
   C       -9.28042        12.17270        -4.61467
   O       -9.21711        11.06076        -5.09221
   C      -10.01264        13.29486        -5.40319
   F       -9.18664        14.32021        -5.68375
   F      -10.50039        12.85561        -6.55969
   F      -11.03876        13.81244        -4.70717
   C       -7.85218        14.75436        -0.56992
   C       -7.26263        14.61415         0.64720
   C       -6.85511        13.44412         1.39840
   C       -7.49384        12.23171         1.42498
   C       -7.00660        11.09466         2.09588
   N       -6.62128        10.11459         2.55472
   C       -8.75124        12.00417         0.82510
   N       -9.80649        11.79657         0.42473
   C       -5.79740        13.86344         2.30909
   C       -5.73518        15.28204         2.30915
   C       -6.69876        15.81572         1.32830
   O       -6.94865        16.97178         1.08021
   C       -4.87802        15.97931         3.12622
   C       -4.04031        15.24694         3.97312
   C       -4.10239        13.83229         3.95596
   C       -4.97386        13.12490         3.13639
   S       -2.97621        13.14058         5.08037
   C       -2.44741        14.71645         5.55880
   C       -3.07709        15.71923         4.90893
   H       -4.21455         4.25422         4.60152
   H       -2.24705        -0.23453         5.65089
   H       -2.51727         3.62972         9.30478
   H       -3.59466         4.85762         7.26741
   H       -4.43363        -0.64121         0.67177
   H       -7.09202         1.61583        -2.88395
   H       -5.45079         4.72259         0.35636
   H       -5.85067         8.04470         0.41747
   H       -7.74998         7.70726        -3.34883
   H       -7.36204         4.42184        -3.40305
   H       -6.75096        10.25799        -0.69032
   H       -8.10419         9.90779        -3.43888
   H       -9.23535        14.76462        -3.12804
   H       -8.08761        15.76885        -0.86900
   H       -4.85820        17.05793         3.11498
   H       -4.98679        12.04734         3.15430
   H       -1.68469        14.79450         6.30900
   H       -2.87863        16.76244         5.07526
*
