# ORCA input file
# SCF done       -205.787206058197          0.000564726261
! CAM-B3LYP def2-SVP def2/J RIJCOSX Grid4 TightSCF
%maxcore 5000
%tddft
    Mode sTDDFT
    Ethresh 5.0
    maxcore 5000
end

%pal
  nprocs 6
  end
* xyz 0 1
   C       15.70540        -7.87502        -0.53776
   C       16.73910        -8.76094        -0.66559
   F       16.56192        -9.88552        -1.37977
   C       17.99276        -8.54378        -0.07670
   C       18.19290        -7.40511         0.65258
   C       17.16216        -6.45655         0.81573
   C       15.89316        -6.69698         0.21094
   C       14.84186        -5.76371         0.36625
   C       15.05749        -4.62711         1.09804
   C       16.33322        -4.38416         1.68721
   C       17.36216        -5.27271         1.55957
   C       16.31616        -3.08244         2.38066
   O       17.19102        -2.57194         3.03750
   C       14.99053        -2.48477         2.03993
   C       14.17131        -3.52056         1.44260
   C       12.80240        -3.54580         1.42692
   C       12.04798        -4.61895         0.90866
   N       11.40201        -5.46770         0.48616
   C       12.00470        -2.54826         2.02801
   N       11.32508        -1.79603         2.56588
   C       14.77281        -1.15618         2.20412
   C       13.76530        -0.36262         1.59423
   C       13.13079        -0.57973         0.28166
   N       12.32689         0.37028        -0.08449
   C       12.32127         1.26914         0.94359
   C       13.23015         0.83280         2.01000
   C       13.27830         1.81835         3.06330
   S       14.30365         1.79416         4.35086
   C       12.36129         2.83916         2.63753
   C       11.81898         2.49104         1.30483
   N       11.06209         3.51054         0.81094
   C       11.12150         4.45468         1.69956
   C       11.90321         4.11433         2.89679
   C       12.05218         4.97652         4.01099
   S       12.19534         6.68517         3.76251
   C       12.34882         6.97249         5.47828
   C       12.24912         5.77701         6.19347
   C       12.07329         4.65925         5.36645
   C       11.81296         3.29364         5.89482
   C       11.28133         3.36976         7.32487
   C        9.89183         3.99773         7.35335
   O        9.45532         4.64287         6.43436
   C        9.10808         3.73368         8.61043
   C       12.26730         4.20614         8.15153
   C       12.28338         5.66122         7.68347
   C       12.56625         8.31155         5.87298
   C       12.65541         8.79581         7.14243
   C       12.94097        10.13921         7.46758
   C       13.18331        11.28896         6.57915
   N       13.47366        12.39330         7.19616
   C       13.45548        12.08978         8.53112
   C       13.09984        10.67921         8.72917
   C       13.11351        10.35172        10.12361
   S       12.79541         8.90258        10.83341
   C       13.48825        11.58893        10.76986
   C       13.69739        12.64170         9.76232
   N       14.10012        13.79919        10.36128
   C       14.20923        13.52353        11.62460
   C       13.84844        12.13912        11.97451
   C       13.83960        11.57412        13.27990
   C       14.68493        11.87769        14.29506
   C       14.33642        11.54256        15.70790
   O       13.46145        10.79742        16.07810
   C       15.24258        12.36879        16.52746
   C       15.26164        12.53098        17.88328
   C       16.21361        13.40003        18.46060
   C       17.12930        14.09452        17.61618
   C       18.06998        14.96617        18.19841
   C       18.08715        15.12459        19.55644
   C       17.19735        14.44895        20.40352
   C       16.27686        13.60007        19.85518
   F       18.98407        15.95550        20.11422
   C       17.09193        13.90322        16.21556
   C       16.16687        13.04790        15.67985
   C       15.92302        12.63296        14.30264
   C       16.80700        12.73419        13.26182
   C       16.64746        12.05891        12.03266
   N       16.59875        11.46809        11.04989
   C       18.03149        13.43028        13.34297
   N       19.02841        13.99766        13.36583
   H       14.75293        -8.07674        -1.00240
   H       18.77053        -9.27844        -0.21224
   H       19.14959        -7.21548         1.11543
   H       13.89381        -5.96495        -0.10750
   H       18.31855        -5.07316         2.01914
   H       15.49407        -0.62563         2.81932
   H       13.33615        -1.40534        -0.37758
   H       10.60475         5.38813         1.55752
   H       12.74270         2.71180         5.88635
   H       11.10460         2.77626         5.24328
   H       11.21876         2.36430         7.75042
   H        9.72237         3.88284         9.49427
   H        8.77797         2.69573         8.60171
   H        8.23344         4.37773         8.65004
   H       13.26123         3.77054         8.03185
   H       12.01571         4.17358         9.21216
   H       13.18010         6.14912         8.07363
   H       11.41275         6.18663         8.08995
   H       12.67429         9.00835         5.05110
   H       12.51689         8.14971         7.99367
   H       13.13185        11.27200         5.50448
   H       14.48850        14.28545        12.33204
   H       13.04465        10.86993        13.50552
   H       14.55841        12.00115        18.50821
   H       18.77251        15.49964        17.57738
   H       17.25846        14.61388        21.46751
   H       15.58122        13.06883        20.48708
   H       17.79069        14.44594        15.59854
*
