# ORCA input file
# SCF done       -206.536779718217          0.000322883034
! CAM-B3LYP def2-SVP def2/J RIJCOSX Grid4 TightSCF
%maxcore 5000
%tddft
    Mode sTDDFT
    Ethresh 5.0
    maxcore 5000
end

%pal
  nprocs 6
  end
* xyz 0 1
   C       -6.15705         3.27093         2.39035
   C       -6.21112         4.47003         3.05937
   C       -7.38033         4.99300         3.64151
   N       -8.30491         5.44968         4.14683
   C       -5.10824         5.34198         3.12685
   N       -4.22498         6.07648         3.14125
   C       -7.31054         2.47199         1.99401
   C       -6.92635         1.64224         0.89974
   C       -7.81810         0.81199         0.28577
   C       -9.15101         0.76232         0.75557
   C       -9.53491         1.57665         1.85970
   C       -8.59237         2.43686         2.46977
   C      -10.86445         1.51089         2.32242
   C      -11.77486         0.68363         1.72283
   C      -11.39697        -0.11615         0.63446
   C      -10.11327        -0.07712         0.16112
   C       -5.49251         1.84628         0.61435
   O       -4.83008         1.35996        -0.27528
   C       -5.00699         2.74379         1.69506
   C       -3.66829         2.87602         1.92966
   C       -3.02857         3.26584         3.12501
   S       -3.80736         3.13382         4.68740
   C       -2.39139         3.58898         5.48836
   C       -1.35404         3.87582         4.63484
   N       -0.17371         4.46939         5.15015
   O        0.00102         4.39593         6.35687
   O        0.57209         5.04375         4.38243
   C       -1.68911         3.66011         3.25737
   N       -0.90418         3.85925         2.17161
   C        0.47574         3.74382         2.07067
   C        1.19994         2.92928         2.90150
   C        2.60100         2.87888         2.75503
   C        3.55424         2.19852         3.50006
   C        3.17348         1.33834         4.66551
   C        4.27260         0.41415         5.21629
   N        4.78556        -0.57787         4.28737
   C        2.59033         2.22331         5.80173
   N        1.24969         1.77259         6.14061
   C        4.84330         2.55544         2.94354
   C        6.10859         2.23990         3.27898
   C        7.28108         2.73162         2.50495
   C        6.94712         3.64253         1.36097
   C        5.68265         3.97078         1.04849
   C        4.60059         3.45989         1.80270
   C        3.24009         3.66561         1.71526
   C        2.45050         4.46709         0.85739
   C        1.10701         4.49606         1.03108
   C        8.11573         1.60561         1.95079
   C        7.94706         0.30180         2.15486
   C        8.75003        -0.66180         1.41737
   S        9.64118        -1.92284         2.21384
   C       10.36158        -2.41839         0.75778
   C        9.93448        -1.67074        -0.31022
   N       10.39144        -1.90281        -1.63416
   O       11.12568        -2.85148        -1.81377
   O       10.01893        -1.13511        -2.50109
   C        8.98841        -0.66262         0.05887
   N        8.33921         0.16648        -0.83636
   C        7.06538         0.54404        -0.68782
   C        6.48003         1.50088        -1.47001
   C        5.10699         1.94322        -1.47286
   C        4.09034         1.50460        -0.65969
   C        2.73740         1.86824        -0.79802
   N        1.61282         2.09019        -0.87404
   C        4.26653         0.61769         0.41340
   N        4.36159        -0.08608         1.31793
   C        4.98632         2.95997        -2.51061
   C        6.25838         3.14300        -3.12974
   C        7.22970         2.23504        -2.50030
   O        8.41699         2.10936        -2.75305
   C        6.44475         4.04515        -4.13619
   C        5.34914         4.82154        -4.57826
   C        4.07859         4.65371        -3.95596
   C        3.91554         3.71236        -2.91341
   C        2.99535         5.43691        -4.40321
   C        3.15558         6.33927        -5.41949
   C        4.40616         6.50157        -6.03328
   C        5.47985         5.75959        -5.62051
   H       -7.51315         0.19865        -0.54912
   H       -8.90455         3.04049         3.30796
   H      -11.15126         2.13158         3.15866
   H      -12.79165         0.64183         2.08386
   H      -12.12764        -0.76352         0.17289
   H       -9.81689        -0.69115        -0.67684
   H       -3.02218         2.52806         1.12815
   H       -2.36466         3.68633         6.55643
   H       -1.39254         4.02872         1.30213
   H        0.72056         2.33491         3.66533
   H        2.34821         0.69929         4.32372
   H        3.87000        -0.12048         6.08229
   H        5.10832         1.02042         5.57992
   H        4.91355        -0.15909         3.36956
   H        4.09652        -1.31184         4.15647
   H        2.51317         3.25762         5.46067
   H        3.28218         2.21166         6.65837
   H        1.29171         0.88513         6.63231
   H        0.80691         2.44849         6.75688
   H        6.34722         1.61545         4.12429
   H        7.92786         3.29125         3.20261
   H        7.78210         4.01936         0.78979
   H        5.47456         4.63361         0.21978
   H        2.92451         5.04957         0.08081
   H        0.48168         5.10739         0.39767
   H        8.89013         1.93570         1.26907
   H        7.22927        -0.09319         2.85950
   H       11.06408        -3.22764         0.72408
   H        8.83780         0.50456        -1.66834
   H        6.50515         0.04110         0.08872
   H        7.41603         4.16579        -4.59255
   H        2.94263         3.60450        -2.45965
   H        2.03356         5.30626        -3.92907
   H        2.31874         6.93235        -5.75671
   H        4.51494         7.21666        -6.83490
   H        6.44535         5.88026        -6.08970
*
