# ORCA input file
# SCF done       -194.547129288930          0.000770863099
! CAM-B3LYP def2-SVP def2/J RIJCOSX Grid4 TightSCF
%maxcore 5000
%tddft
    Mode sTDDFT
    Ethresh 5.0
    maxcore 5000
end

%pal
  nprocs 6
  end
* xyz 0 1
   C        4.25390         5.01950         5.74141
   C        4.55449         4.57700         4.48587
   C        5.82685         4.72256         3.89273
   N        6.84297         4.82535         3.37056
   C        3.66355         3.83222         3.68377
   N        3.00593         3.16745         3.01865
   C        5.19840         5.54929         6.71614
   C        4.63857         5.40208         8.02104
   C        5.33156         5.75771         9.14325
   C        6.62770         6.30081         9.00804
   C        7.18256         6.47249         7.70599
   C        6.44813         6.08508         6.56217
   C        8.47442         7.02441         7.58702
   C        9.18715         7.38596         8.69763
   C        8.64180         7.21273         9.97896
   C        7.38999         6.68155        10.13060
   C        3.29384         4.82363         7.91096
   O        2.55444         4.44403         8.78971
   C        2.99769         4.81494         6.44245
   C        1.72297         4.73605         6.00273
   C        1.25288         4.99385         4.67859
   N        1.83821         5.86162         3.87606
   C        1.08655         5.88958         2.75127
   C       -0.07062         4.99148         2.86032
   C       -0.86300         5.01886         1.62100
   O       -1.89550         4.43798         1.36922
   C       -0.08955         5.94372         0.76682
   C        1.08379         6.46282         1.50614
   N        1.80645         7.30479         0.72530
   C        1.17975         7.32840        -0.42315
   C       -0.00853         6.49337        -0.46961
   C        0.02887         4.39103         4.09156
   C       -0.74708         3.38485         4.71885
   C       -1.91976         2.90762         4.22606
   C       -2.65537         1.89148         4.88016
   S       -2.06727         1.10037         6.30150
   C       -3.49105         0.11108         6.42257
   C       -4.39562         0.40202         5.37824
   C       -3.91584         1.41131         4.51627
   O       -4.52610         1.95763         3.43861
   O       -5.55594        -0.27122         5.35643
   C       -6.37010        -0.31754         4.20512
   C       -3.66629        -0.88819         7.39871
   N       -4.72899        -1.69119         7.38784
   C       -4.54291        -2.57475         8.37497
   C       -3.26378        -2.34513         9.07094
   C       -3.08843        -3.31086        10.17722
   O       -2.17787        -3.38658        10.96941
   C       -4.30515        -4.13138        10.07096
   C       -5.16271        -3.65358         8.96738
   N       -6.28388        -4.40309         8.87384
   C       -6.17942        -5.29680         9.83306
   C       -4.97341        -5.18323        10.61737
   C       -2.69764        -1.25610         8.47369
   C       -1.47451        -0.57638         8.73623
   C       -0.31342        -1.14715         9.14063
   C        0.86194        -0.35737         9.09583
   C        2.14650        -0.79095         9.22105
   C        3.32349         0.01652         8.97677
   C        3.36179         1.14238         8.19339
   C        4.51606         1.90266         7.93375
   N        5.40667         2.58325         7.67940
   C        2.26046         1.62542         7.46046
   N        1.42920         2.03508         6.78100
   C        4.46575        -0.67682         9.54957
   C        4.03734        -1.96614         9.98197
   C        2.58850        -2.11918         9.72521
   O        1.91559        -3.10926         9.89230
   C        4.90970        -2.86100        10.52900
   C        6.26863        -2.49861        10.67579
   C        6.69928        -1.20649        10.25579
   C        5.77481        -0.30022         9.68860
   C        8.05704        -0.85958        10.40930
   C        8.94969        -1.74603        10.94725
   C        8.52556        -3.01827        11.35856
   C        7.21384        -3.38602        11.22615
   H        4.89677         5.62441        10.12292
   H        6.88874         6.22674         5.58766
   H        8.89182         7.15255         6.59921
   H       10.17606         7.80733         8.59576
   H        9.21859         7.50282        10.84447
   H        6.96502         6.54599        11.11454
   H        0.97200         4.49984         6.74831
   H        1.55060         7.93360        -1.23228
   H       -0.65175         6.37327        -1.31882
   H       -0.35342         2.96795         5.63661
   H       -2.34335         3.29698         3.30868
   H       -5.41580         1.61162         3.31456
   H       -7.04491        -1.15592         4.37778
   H       -5.79277        -0.51390         3.29637
   H       -6.97569         0.59103         4.09745
   H       -6.95600        -6.02767         9.97756
   H       -4.70121        -5.81171        11.44204
   H       -1.46516         0.48421         8.51669
   H       -0.24549        -2.19606         9.38805
   H        0.70892         0.69398         8.87812
   H        4.56977        -3.83634        10.84393
   H        6.12103         0.67487         9.38062
   H        8.37885         0.12036        10.08795
   H        9.98822        -1.47202        11.05766
   H        9.24327        -3.70574        11.78048
   H        6.88200        -4.36446        11.54107
*
