# ORCA input file
# SCF done       -185.340208336010          0.000611826823
! CAM-B3LYP def2-SVP def2/J RIJCOSX Grid4 TightSCF
%maxcore 5000
%tddft
    Mode sTDDFT
    Ethresh 5.0
    maxcore 5000
end

%pal
  nprocs 6
  end
* xyz 0 1
   C       -4.12641         5.28071        -7.18824
   C       -5.18441         4.42372        -7.05074
   C       -5.64578         3.56856        -8.07439
   N       -6.06906         2.85362        -8.86588
   C       -5.97661         4.31354        -5.88859
   N       -6.65605         4.18723        -4.97184
   C       -3.30786         5.45880        -8.37929
   C       -2.44185         6.57649        -8.18638
   C       -1.53537         6.96286        -9.13207
   C       -1.44594         6.22570       -10.33310
   C       -2.31537         5.11449       -10.54145
   C       -3.24770         4.74285        -9.54682
   C       -2.21781         4.39375       -11.74958
   C       -1.30217         4.74747       -12.70282
   C       -0.44062         5.83526       -12.49235
   C       -0.51128         6.55936       -11.33319
   C       -2.70033         7.16691        -6.86781
   O       -2.37076         8.25351        -6.45319
   C       -3.60664         6.18798        -6.17516
   C       -3.83260         6.17393        -4.84097
   C       -3.05295         6.92349        -3.90848
   C       -3.52415         7.50189        -2.64184
   N       -2.60180         8.10706        -1.95391
   C       -1.45267         7.96838        -2.67479
   C       -1.71356         7.22157        -3.92231
   C       -0.47720         6.97844        -4.61816
   S       -0.21481         5.89696        -5.82941
   C        0.50635         7.70733        -3.85891
   C       -0.11616         8.25982        -2.63556
   N        0.82163         8.85527        -1.84713
   C        1.95241         8.70088        -2.46583
   C        1.84470         8.00220        -3.75291
   C        2.93387         7.76956        -4.63665
   S        4.53897         7.54154        -4.00732
   C        5.20382         7.34451        -5.60191
   C        4.21116         7.47103        -6.56863
   C        2.92413         7.71392        -6.02392
   C        1.82742         7.99949        -6.85589
   N        0.99808         8.27931        -7.59577
   C        4.46327         7.37425        -7.94790
   N        4.68017         7.29111        -9.07040
   C        6.57798         7.10196        -5.84891
   C        7.50623         6.95300        -4.87265
   C        8.88469         6.71668        -5.09788
   C        9.60747         6.67701        -6.37648
   N       10.87942         6.43361        -6.26658
   C       11.11680         6.28722        -4.93046
   C        9.87110         6.46930        -4.16567
   C       10.11369         6.28251        -2.76221
   S        9.04202         6.36336        -1.51857
   C       11.52763         5.99733        -2.68834
   C       12.12034         5.99961        -4.04430
   N       13.44691         5.70778        -3.98123
   C       13.70830         5.48563        -2.72846
   C       12.53564         5.64016        -1.83775
   C       12.49745         5.39482        -0.43137
   C       13.06248         4.29282         0.11802
   C       13.12812         3.88417         1.51190
   C       12.85664         4.67321         2.59536
   C       12.95050         4.23637         3.93437
   N       13.00812         3.93171         5.03891
   C       12.47865         6.03101         2.51024
   N       12.19108         7.14161         2.49652
   C       13.59132         2.50298         1.53793
   C       13.86255         2.08007         0.20202
   C       13.56567         3.17395        -0.72696
   O       13.65678         3.16861        -1.93808
   C       14.31843         0.82298        -0.08015
   C       14.52668        -0.08666         0.97925
   C       14.25352         0.32531         2.31692
   C       13.78328         1.63254         2.57872
   C       14.46098        -0.59389         3.36532
   C       14.91669        -1.85842         3.10710
   C       15.18575        -2.26230         1.79057
   C       14.99533        -1.39525         0.74882
   H       -0.87891         7.79992        -8.95094
   H       -3.88384         3.89030        -9.72704
   H       -2.88082         3.55540       -11.90636
   H       -1.23476         4.18859       -13.62431
   H        0.27946         6.09557       -13.25357
   H        0.14966         7.39569       -11.16124
   H       -4.60193         5.54111        -4.41630
   H       -4.54211         7.47016        -2.29357
   H        2.86886         9.08773        -2.05414
   H        6.85687         7.03181        -6.89213
   H        7.19973         7.00439        -3.83419
   H        9.17099         6.83276        -7.34730
   H       14.71621         5.30960        -2.39992
   H       11.93078         6.09324         0.17184
   H       14.51668         0.52825        -1.09997
   H       13.58101         1.91263         3.60046
   H       14.25336        -0.27912         4.37731
   H       15.07235        -2.55504         3.91690
   H       15.54418        -3.26366         1.60580
   H       15.20019        -1.70004        -0.26685
*
