# ORCA input file
# SCF done       -216.489503987604          0.000838201631
! CAM-B3LYP def2-SVP def2/J RIJCOSX Grid4 TightSCF
%maxcore 5000
%tddft
    Mode sTDDFT
    Ethresh 5.0
    maxcore 5000
end

%pal
  nprocs 6
  end
* xyz 0 1
   C        0.87848         2.56892        -4.79479
   C       -0.33185         2.37394        -5.40028
   F       -0.76961         3.26462        -6.30768
   C       -1.14691         1.27022        -5.11346
   C       -0.71904         0.35303        -4.19447
   C        0.52120         0.50389        -3.54077
   C        1.33493         1.63437        -3.84532
   C        2.58191         1.80946        -3.20044
   C        2.99882         0.88017        -2.28701
   C        2.19012        -0.25726        -1.99984
   C        0.97840        -0.44564        -2.59984
   C        2.89445        -1.12358        -1.03800
   O        2.50058        -2.14210        -0.51827
   C        4.24832        -0.51496        -0.88415
   C        4.21127         0.80473        -1.47525
   C        5.00385         1.87418        -1.14736
   C        6.03894         1.81167        -0.19493
   N        6.87846         1.79407         0.58833
   C        4.81211         3.17628        -1.65542
   N        4.69169         4.25258        -2.03386
   C        5.24249        -1.28065        -0.35215
   C        6.63999        -1.13573        -0.47038
   C        7.37102        -0.36479        -1.36459
   C        8.73860        -0.55355        -1.22721
   C        9.06737        -1.48758        -0.22212
   S        7.68864        -2.12399         0.54365
   C       10.47535        -1.63410        -0.19519
   C       11.03640        -0.79032        -1.17144
   C        9.96430        -0.06741        -1.83711
   C       10.07223         0.87434        -2.81743
   C       11.31640         1.28181        -3.34391
   N       12.32556         1.60385        -3.78224
   C        8.92837         1.49091        -3.36826
   N        7.98673         1.97384        -3.80978
   C       12.41856        -0.91188        -1.26651
   C       12.92735        -1.85096        -0.38328
   S       11.65888        -2.56486         0.60600
   C       14.28071        -2.31191        -0.29908
   C       14.70695        -3.33758         0.55281
   C       16.00870        -3.88458         0.50173
   N       16.23206        -4.88993         1.38810
   C       15.20968        -5.13848         2.10913
   S       13.80186        -4.16857         1.78654
   C       16.98522        -3.44731        -0.41408
   C       16.59647        -2.35178        -1.19604
   C       15.29250        -1.79461        -1.14478
   N       15.11351        -0.74091        -1.98651
   C       16.16442        -0.45833        -2.64939
   S       17.54784        -1.46530        -2.35114
   C       18.22195        -4.15846        -0.52690
   C       19.22893        -3.98368        -1.46148
   C       20.22750        -4.94645        -1.34553
   C       19.98894        -5.85431        -0.29773
   S       18.53522        -5.52179         0.53606
   C       21.01984        -6.82779        -0.30942
   C       21.89728        -6.53919        -1.37549
   C       21.44163        -5.33186        -2.04370
   C       22.04080        -4.70292        -3.09546
   C       23.22312        -5.20917        -3.67563
   N       24.17624        -5.64337        -4.14243
   C       21.51142        -3.52690        -3.66680
   N       21.07110        -2.57497        -4.12993
   C       22.92273        -7.46429        -1.50181
   C       22.85522        -8.45959        -0.53514
   S       21.47047        -8.23512         0.53128
   C       23.65870        -9.60705        -0.37740
   C       24.85455        -9.91084        -0.95704
   C       25.25980       -11.34533        -1.02563
   O       24.77118       -12.26126        -0.40505
   C       26.31827       -11.39806        -2.04970
   C       26.92575       -12.48806        -2.60338
   C       27.88789       -12.29742        -3.62020
   C       28.19964       -10.97373        -4.04855
   C       29.14879       -10.79288        -5.07307
   C       29.75101       -11.88643        -5.63073
   C       29.45997       -13.19523        -5.22201
   C       28.54024       -13.38906        -4.22933
   F       30.65744       -11.71630        -6.60951
   C       27.56206        -9.86195        -3.44940
   C       26.64090       -10.07229        -2.46000
   C       25.84690        -9.13529        -1.66837
   C       26.16748        -7.81912        -1.45774
   C       25.50897        -6.99855        -0.52200
   N       25.00136        -6.31141         0.24516
   C       27.25046        -7.16696        -2.08403
   N       28.12350        -6.59594        -2.56145
   H        1.47852         3.43172        -5.03812
   H       -2.09159         1.16853        -5.62366
   H       -1.32889        -0.50572        -3.95736
   H        3.18448         2.66618        -3.45777
   H        0.37773        -1.31125        -2.36394
   H        4.89883        -2.17597         0.15766
   H        6.91500         0.25528        -2.11407
   H       13.04863        -0.36917        -1.94643
   H       15.18851        -5.89156         2.87202
   H       16.21648         0.34515        -3.35766
   H       19.23000        -3.21259        -2.20798
   H       23.65276        -7.45899        -2.28990
   H       23.23035       -10.40817         0.21786
   H       26.67194       -13.48440        -2.27379
   H       29.39941        -9.79946        -5.41072
   H       29.96642       -14.01915        -5.69924
   H       28.29868       -14.38781        -3.89805
   H       27.80625        -8.87159        -3.79989
*
