# ORCA input file
# SCF done       -216.249776010050          0.000989502765
! CAM-B3LYP def2-SVP def2/J RIJCOSX Grid4 TightSCF
%maxcore 5000
%tddft
    Mode sTDDFT
    Ethresh 5.0
    maxcore 5000
end

%pal
  nprocs 6
  end
* xyz 0 1
   C       16.33346         2.45088         3.99732
   C       16.83692         2.78958         5.22196
   F       18.16203         2.66903         5.44505
   C       16.02664         3.24582         6.26869
   C       14.68151         3.37092         6.05651
   C       14.10523         3.02276         4.81825
   C       14.94544         2.53720         3.77423
   C       14.38530         2.12138         2.54431
   C       13.03008         2.19794         2.35943
   C       12.20349         2.74138         3.38487
   C       12.71574         3.13727         4.58698
   C       10.80945         2.79837         2.90613
   O        9.84837         3.27552         3.45881
   C       10.82030         2.09895         1.58600
   C       12.19686         1.87369         1.20561
   C       12.67440         1.61893        -0.05721
   C       11.87915         1.70403        -1.21797
   N       11.27560         1.84021        -2.18512
   C       14.01072         1.27680        -0.33147
   N       15.06993         0.90970        -0.58447
   C        9.62669         1.71434         1.04781
   C        9.34830         0.73303         0.07316
   S       10.41834        -0.59769        -0.24829
   C        9.39734        -1.26392        -1.49321
   C        8.24713        -0.49029        -1.59966
   C        8.19379         0.61705        -0.71003
   C        7.01174         1.36890        -0.89044
   C        6.22399         0.83401        -1.86968
   C        4.92242         1.36216        -2.30409
   O        4.38858         2.33241        -1.82964
   O        4.41291         0.62084        -3.29182
   C        3.15184         1.03140        -3.79966
   S        6.88308        -0.59903        -2.63150
   C        9.76152        -2.31803        -2.35282
   N        8.97203        -2.65504        -3.37033
   C        9.68506        -3.52213        -4.10940
   C       11.02833        -3.73546        -3.54139
   C       11.80888        -4.66879        -4.37283
   O       12.95496        -5.02849        -4.22214
   C       10.84579        -5.02748        -5.42988
   C        9.57101        -4.30016        -5.23872
   N        8.67854        -4.63969        -6.19777
   C        9.29903        -5.51914        -6.94813
   C       10.65128        -5.81390        -6.51989
   C       11.06920        -3.01417        -2.38214
   C       12.04585        -2.84703        -1.36141
   C       13.38869        -2.87474        -1.51078
   C       14.25236        -2.48903        -0.44720
   C       13.87699        -1.98823         0.79182
   C       14.97067        -1.62569         1.56554
   C       16.20226        -1.85016         0.91936
   S       15.99230        -2.50012        -0.64277
   C       17.24178        -1.44278         1.79645
   C       16.65582        -0.97624         2.99363
   C       15.21452        -1.07128         2.88368
   C       14.28485        -0.69385         3.81154
   C       12.90703        -0.70458         3.51898
   N       11.79409        -0.66348         3.24167
   C       14.65574        -0.22252         5.08693
   N       14.96430         0.15978         6.12365
   C       17.58729        -0.52960         3.91927
   C       18.88926        -0.64500         3.45389
   S       18.93671        -1.31607         1.82407
   C       20.08764        -0.22203         4.06720
   C       20.29741         0.16185         5.35697
   C       21.48671         1.01259         5.65903
   O       22.44229         1.19257         4.94125
   C       21.20458         1.61412         6.97452
   C       21.90181         2.57433         7.64909
   C       21.41427         3.03293         8.89343
   C       20.19874         2.49541         9.40947
   C       19.71190         2.96807        10.64393
   C       20.41682         3.92297        11.32249
   C       21.61632         4.45990        10.83488
   C       22.10075         4.01570         9.63587
   F       19.95392         4.37388        12.50246
   C       19.50085         1.49616         8.69168
   C       20.00501         1.05366         7.49951
   C       19.52668         0.03082         6.57396
   C       18.69389        -1.00389         6.91376
   C       18.42635        -2.09757         6.06798
   N       18.20039        -3.00765         5.40522
   C       18.07917        -1.13241         8.17684
   N       17.55879        -1.28092         9.18861
   H       16.98893         2.11097         3.21028
   H       16.47965         3.48859         7.21654
   H       14.03751         3.72618         6.84598
   H       15.04564         1.73883         1.78160
   H       12.06843         3.53543         5.35350
   H        8.75639         2.19634         1.48594
   H        6.74270         2.25139        -0.33971
   H        3.20846         2.05734        -4.16851
   H        2.39413         0.98146        -3.01515
   H        2.91332         0.34499        -4.60738
   H        8.80296        -5.95199        -7.79939
   H       11.31927        -6.50569        -6.99351
   H       11.63968        -2.63183        -0.38329
   H       13.82991        -3.13536        -2.46208
   H       12.85748        -1.87928         1.11046
   H       17.33630        -0.09266         4.86743
   H       20.94207        -0.09343         3.40960
   H       22.81407         2.98085         7.23893
   H       18.79593         2.57158        11.05352
   H       22.12957         5.21030        11.41500
   H       23.02217         4.41496         9.23949
   H       18.57745         1.11327         9.09760
*
