# ORCA input file
# SCF done       -184.351167697299          0.000517815390
! CAM-B3LYP def2-SVP def2/J RIJCOSX Grid4 TightSCF
%maxcore 5000
%tddft
    Mode sTDDFT
    Ethresh 5.0
    maxcore 5000
end

%pal
  nprocs 6
  end
* xyz 0 1
   C        8.69086         6.85300       -12.24082
   C        8.88202         7.16196       -13.55891
   F        9.00740         8.45083       -13.92559
   C        8.95459         6.18194       -14.55773
   C        8.82960         4.86710       -14.20391
   C        8.63104         4.49189       -12.85965
   C        8.55850         5.50412       -11.85879
   C        8.34965         5.15280       -10.50412
   C        8.22292         3.83350       -10.16638
   C        8.31110         2.82428       -11.16894
   C        8.50395         3.13537       -12.48351
   C        8.17245         1.49752       -10.53735
   O        8.14306         0.41358       -11.07633
   C        8.13375         1.76537        -9.07503
   C        7.96371         3.18515        -8.88414
   C        7.38895         3.78694        -7.79141
   C        6.85922         3.05813        -6.70804
   N        6.37118         2.48343        -5.84128
   C        7.16997         5.17331        -7.68421
   N        6.98707         6.29794        -7.54198
   C        8.31061         0.73311        -8.19921
   C        8.72075         0.75606        -6.84264
   C        8.47725        -0.31944        -6.01300
   C        8.81953        -0.38292        -4.66992
   C        9.54175         0.71311        -4.01825
   C        9.93827         1.84071        -4.64759
   S        9.63574         2.16321        -6.30082
   C        9.70134         0.30413        -2.66777
   C        9.11667        -0.95352        -2.47247
   C        9.28164        -1.39753        -1.13896
   C        9.95595        -0.49178        -0.38510
   S       10.42496         0.93451        -1.24727
   C        8.55252        -1.39596        -3.71890
   C        7.84284        -2.58712        -3.99949
   C        7.41302        -3.49413        -3.08622
   C        6.67168        -4.66432        -3.40545
   C        6.34094        -5.19080        -4.62713
   C        5.55448        -6.36190        -4.55053
   C        5.27783        -6.73577        -3.20649
   S        6.02300        -5.63182        -2.08692
   C        4.50212        -7.82641        -2.88579
   C        3.97318        -8.58236        -3.93257
   C        4.26359        -8.21827        -5.27524
   C        5.04094        -7.13031        -5.59715
   S        3.49627        -9.30075        -6.40452
   C        2.77765       -10.21187        -5.08605
   C        3.12693        -9.71591        -3.86354
   C        1.91692       -11.31006        -5.37684
   C        1.60603       -11.81796        -6.60531
   C        0.68585       -12.89178        -6.55863
   C        0.29088       -13.19595        -5.22566
   S        1.08630       -12.15001        -4.07882
   C       -0.61454       -14.18680        -4.93126
   C       -1.15889       -14.91347        -5.99528
   C       -0.75365       -14.61632        -7.32722
   C        0.15454       -13.62330        -7.61982
   S       -1.55916       -15.64532        -8.46930
   C       -2.44625       -16.45579        -7.17323
   C       -2.11263       -15.95175        -5.94113
   C       -3.34670       -17.46845        -7.58284
   C       -4.21248       -18.24578        -6.87792
   C       -4.51853       -18.30725        -5.45247
   O       -4.02285       -17.66122        -4.55431
   N       -5.51067       -19.24998        -5.21020
   C       -5.99378       -19.92351        -6.28759
   C       -6.96621       -20.88999        -6.30636
   C       -7.66961       -21.38164        -5.19275
   N       -8.27979       -21.82397        -4.32647
   C       -7.33497       -21.47922        -7.53433
   N       -7.64182       -21.96224        -8.52798
   S       -5.20582       -19.40753        -7.75623
   C       -5.97131       -19.46602        -3.85943
   H        8.63620         7.63441       -11.49903
   H        9.10682         6.48535       -15.58137
   H        8.88194         4.09385       -14.95560
   H        8.30370         5.93694        -9.76485
   H        8.55788         2.35689       -13.22978
   H        8.18604        -0.25428        -8.63447
   H        7.93071        -1.14304        -6.45242
   H       10.47771         2.62879        -4.14616
   H        8.93857        -2.33448        -0.74130
   H       10.21795        -0.56942         0.65200
   H        7.60230        -2.75704        -5.03957
   H        7.59281        -3.32669        -2.03587
   H        6.64743        -4.76071        -5.56325
   H        4.29741        -8.08974        -1.86031
   H        5.24290        -6.86720        -6.62318
   H        2.78197       -10.14594        -2.93957
   H        2.02062       -11.42927        -7.51869
   H       -0.90903       -14.40210        -3.91677
   H        0.44612       -13.40833        -8.63533
   H       -2.54307       -16.31367        -5.02630
   H       -3.34787       -17.64155        -8.65391
   H       -5.40363       -18.78802        -3.22148
   H       -5.79281       -20.49602        -3.54987
   H       -7.03539       -19.24479        -3.77380
*
