# ORCA input file
# SCF done       -176.257109075282          0.000761966103
! CAM-B3LYP def2-SVP def2/J RIJCOSX Grid4 TightSCF
%maxcore 5000
%tddft
    Mode sTDDFT
    Ethresh 5.0
    maxcore 5000
end

%pal
  nprocs 6
  end
* xyz 0 1
   C       -3.75862         2.86833         3.51886
   C       -2.60292         3.49238         3.07688
   C       -1.83544         2.94346         2.05831
   C       -2.20914         1.75902         1.44355
   C       -3.36472         1.12657         1.87391
   C       -4.13976         1.67616         2.92203
   C       -5.26060         0.79220         3.19964
   C       -6.29218         1.03487         4.05910
   C       -6.43067         2.22135         4.81464
   N       -6.60464         3.15543         5.45707
   C       -7.38235         0.16650         4.29321
   N       -8.29280        -0.48740         4.53799
   C       -5.05475        -0.41135         2.38397
   C       -4.01472        -0.08276         1.40430
   C       -3.84425        -0.65982         0.17895
   C       -4.72101        -1.61375        -0.37866
   N       -5.44362        -2.32947        -0.90997
   C       -2.82421        -0.29074        -0.72484
   N       -1.99916        -0.04868        -1.48396
   C       -5.59913        -1.62160         2.64397
   C       -5.21644        -2.88872         2.06470
   C       -6.15467        -3.81265         1.68829
   F       -7.46488        -3.66633         1.81815
   S       -5.53160        -5.20382         0.88160
   C       -3.94671        -4.55882         1.10767
   F       -2.89318        -5.25985         0.69959
   C       -3.88866        -3.35797         1.75924
   C       -2.61441        -2.80584         2.16711
   C       -2.39181        -2.02858         3.23307
   C       -1.05672        -1.59887         3.61582
   C       -0.78145        -0.34305         4.06842
   F       -1.68411         0.61038         4.30950
   S        0.89805         0.01445         4.28388
   C        1.24553        -1.60798         3.78900
   F        2.50503        -2.03222         3.78711
   C        0.15310        -2.37065         3.49332
   C        0.26453        -3.79944         3.25327
   C       -0.64359        -4.68790         3.67192
   C       -0.53568        -6.12157         3.49107
   C       -1.61774        -6.90837         3.23481
   F       -2.88317        -6.49574         3.17078
   S       -1.25638        -8.57582         2.94225
   C        0.40821        -8.21274         3.21790
   F        1.28548        -9.21275         3.19283
   C        0.67788        -6.90183         3.51990
   C        1.93981        -6.37687         3.95558
   C        3.14652        -6.96671         3.80512
   C        4.32084        -6.38744         4.35353
   C        5.60268        -6.77585         4.10275
   C        6.75492        -6.46228         4.94502
   C        6.85312        -5.45661         5.86605
   C        5.84859        -4.50359         6.14270
   N        5.07702        -3.70164         6.42454
   C        8.00032        -5.21431         6.65298
   N        8.89856        -4.96273         7.32095
   C        7.78365        -7.44080         4.62110
   C        7.35048        -8.21789         3.52132
   C        8.13963        -9.24319         3.02677
   C        9.36232        -9.48850         3.63328
   C        9.79358        -8.72148         4.70669
   C        9.01298        -7.69221         5.21070
   C        6.06033        -7.71160         3.08141
   C        5.49939        -7.89160         1.84656
   C        6.00754        -8.78499         0.87908
   N        6.36991        -9.50993         0.06730
   C        4.42983        -7.11575         1.34749
   N        3.60691        -6.46755         0.87926
   H       -4.33450         3.30238         4.31920
   H       -2.29157         4.41576         3.54027
   H       -0.93226         3.44226         1.74168
   H       -1.60067         1.33515         0.66102
   H       -6.40899        -1.68139         3.35946
   H       -1.77101        -3.15504         1.58585
   H       -3.20427        -1.65392         3.83938
   H        1.17310        -4.12261         2.76423
   H       -1.56139        -4.35034         4.13308
   H        1.89141        -5.41584         4.44980
   H        3.23095        -7.91015         3.28767
   H        4.15952        -5.61898         5.09709
   H        7.81194        -9.84944         2.19787
   H        9.98502       -10.28878         3.26415
   H       10.74979        -8.92964         5.16158
   H        9.36145        -7.11058         6.04821
*
