# ORCA input file
# SCF done       -248.388620472711          0.000836034446
! CAM-B3LYP def2-SVP def2/J RIJCOSX Grid4 TightSCF
%maxcore 5000
%tddft
    Mode sTDDFT
    Ethresh 5.0
    maxcore 5000
end

%pal
  nprocs 6
  end
* xyz 0 1
   C        3.07123        -2.63169        -0.42190
   C        3.83643        -2.04034         0.53673
   C        3.58254        -0.65740         0.61346
   C        2.61529        -0.24013        -0.30722
   S        2.02476        -1.53033        -1.25526
   C        2.42153         1.16416        -0.15877
   C        3.27019         1.62435         0.85587
   C        4.02933         0.49425         1.37682
   C        4.95914         0.51975         2.37434
   C        5.30922         1.70993         3.04637
   N        5.59849         2.67309         3.59722
   C        5.63195        -0.64359         2.80369
   N        6.18563        -1.58429         3.15487
   C        3.15164         2.99787         1.08203
   C        2.22004         3.57883         0.24646
   S        1.47760         2.41294        -0.83759
   C        1.82717         4.94430         0.20338
   C        0.90475         5.52198        -0.62282
   C        0.72700         6.90518        -0.39509
   C       -0.16848         7.77972        -1.04573
   C       -1.10363         7.33202        -2.05795
   C       -1.48000         7.98599        -3.19596
   C       -2.46056         7.28556        -3.93144
   C       -2.85485         6.10670        -3.36944
   S       -1.98994         5.83818        -1.89439
   C       -3.85906         5.12907        -3.85869
  Cl       -3.09551         7.88461        -5.41569
   C       -0.13036         9.11004        -0.64549
   C        0.73848         9.59730         0.36654
   C        1.60687         8.71262         1.04944
   C        1.58539         7.38802         0.62625
   S        2.54625         6.09936         1.30234
   C        2.43365         9.16415         2.14728
   C        2.14622        10.09942         3.10362
   C        3.19174        10.27376         4.03380
   C        4.27936         9.47580         3.81641
   S        4.02114         8.49045         2.41843
   C        5.52312         9.35402         4.61601
  Cl        3.09424        11.40956         5.32422
   C        0.58229        10.98284         0.56857
   C       -0.41123        11.54800        -0.18830
   S       -1.16035        10.37330        -1.25699
   C       -0.88889        12.88041        -0.12814
   C       -1.99232        13.40661        -0.94208
   N       -2.34167        14.62298        -0.65380
   C       -1.51544        15.00671         0.36432
   C       -0.56044        13.93685         0.69795
   C        0.28676        14.36724         1.78118
   S        1.55176        13.56646         2.46804
   C       -0.20998        15.67362         2.13335
   C       -1.31442        16.04297         1.23707
   N       -1.82967        17.26113         1.58135
   C       -1.15100        17.64578         2.61902
   C       -0.10876        16.70131         3.04710
   C        0.75198        16.88220         4.15963
   C        0.68808        17.87097         5.11333
   C        1.69102        17.77079         6.09915
   C        1.90459        18.59457         7.22924
   C        0.97733        19.65367         7.56618
   C       -0.38755        19.62124         7.51097
   C       -0.97771        20.83781         7.91460
   C       -0.08494        21.80723         8.27066
   S        1.53213        21.20915         8.12317
   C       -0.35355        23.18783         8.74506
  Cl       -2.68508        21.06743         7.94713
   C        3.03137        18.31739         7.99100
   C        3.92008        17.24450         7.71909
   C        3.67665        16.39045         6.62632
   C        2.57378        16.69263         5.83702
   S        2.08174        15.78492         4.44342
   C        4.52986        15.25786         6.32532
   C        5.04630        14.32480         7.17801
   C        5.81632        13.34821         6.50935
   C        5.91173        13.53089         5.16008
   S        5.01338        14.92720         4.68440
   C        6.63162        12.71440         4.15133
  Cl        6.56703        12.03977         7.34143
   C        4.99791        17.20088         8.63285
   C        4.94007        18.17322         9.59319
   S        3.53383        19.20027         9.40700
   C        5.86533        18.41223        10.64820
   C        7.02164        17.71043        10.93065
   C        7.68872        18.23207        12.04091
   C        7.03297        19.33495        12.60382
   S        5.59911        19.73342        11.77136
   C        7.79316        19.78860        13.72072
   C        8.92185        18.97249        13.85519
   C        8.89971        17.96735        12.80827
   C        9.81647        16.98289        12.58075
   C       10.96155        16.81980        13.38828
   N       11.89608        16.68634        14.03905
   C        9.67923        16.06377        11.51940
   N        9.56837        15.31744        10.65593
   C        9.73435        19.35329        14.94059
   C        9.21518        20.42908        15.59397
   S        7.73066        21.00815        14.91259
   H        3.05130        -3.66592        -0.70149
   H        4.54071        -2.57156         1.15035
   H        3.70519         3.56099         1.81175
   H        0.37710         4.96347        -1.37410
   H       -1.05469         8.91466        -3.52780
   H       -4.22234         5.43679        -4.83598
   H       -4.70345         5.06970        -3.17201
   H       -3.42102         4.13491        -3.93775
   H        1.21008        10.61808         3.18535
   H        5.53614        10.11177         5.39490
   H        6.40326         9.46611         3.98478
   H        5.57417         8.37036         5.08314
   H        1.18670        11.56771         1.23623
   H       -2.49035        12.85462        -1.72070
   H       -1.36019        18.59144         3.08673
   H       -0.04797        18.65309         5.09623
   H       -0.95867        18.75221         7.24115
   H       -1.37251        23.47230         8.49342
   H        0.33998        23.89149         8.28912
   H       -0.23358        23.24988         9.82734
   H        4.85144        14.30018         8.23458
   H        7.21260        13.35380         3.48901
   H        5.92072        12.15689         3.54113
   H        7.29796        12.01477         4.64941
   H        5.79660        16.48658         8.56335
   H        7.35430        16.86735        10.35451
   H       10.64832        18.86536        15.22586
   H        9.61479        20.93293        16.45109
*
