# ORCA input file
# SCF done       -208.534881468487          0.000973894003
! CAM-B3LYP def2-SVP def2/J RIJCOSX Grid4 TightSCF
%maxcore 5000
%tddft
    Mode sTDDFT
    Ethresh 5.0
    maxcore 5000
end

%pal
  nprocs 6
  end
* xyz 0 1
   C       -0.23468         3.05469         7.31852
   C       -0.47628         1.57343         7.27902
   O       -1.01076         0.98217         6.36889
   C        0.11160         1.06439         8.52207
   C        0.53766         2.13865         9.31234
   C        0.17110         3.39557         8.66825
   C        0.01622         4.60612         9.27994
   C       -0.64517         5.70323         8.68430
   N       -1.27084         6.58781         8.30606
   C        0.36280         4.85927        10.62476
   N        0.62868         5.11035        11.71202
   C        1.17713         1.91137        10.53684
   C        1.35833         0.61782        10.95404
   C        0.91112        -0.48760        10.19703
   C        0.27144        -0.27244         8.94014
   C       -0.17625        -1.37816         8.19048
   C       -0.00738        -2.64702         8.67516
   C        0.62371        -2.86613         9.90888
   C        1.07713        -1.81049        10.65327
   C       -0.29480         3.75640         6.16484
   C        0.13993         5.08731         5.90840
   N        0.98011         5.74350         6.68793
   C        1.14376         6.95891         6.11638
   C        0.34836         7.08550         4.89480
   C        0.51577         8.41773         4.30095
   O        0.00326         8.86559         3.29578
   C        1.45920         9.06805         5.23213
   C        1.82089         8.13719         6.32394
   N        2.69457         8.71942         7.17986
   C        2.88906         9.92449         6.70404
   C        2.14802        10.20828         5.48781
   C       -0.29061         5.87709         4.72989
   C       -1.16373         5.40797         3.72756
   C       -1.61295         6.14859         2.67483
   C       -2.45444         5.60404         1.68946
   S       -2.85283         3.91644         1.69784
   C       -3.84777         4.04439         0.27506
   C       -3.87306         5.38227        -0.18544
   C       -3.07533         6.25485         0.60538
   C       -2.98734         7.61540         0.26293
   C       -3.66635         8.10016        -0.82152
   C       -3.59812         9.53771        -1.21728
   C       -4.47051         7.21867        -1.60869
   O       -5.09634         7.80847        -2.64913
   C       -5.91952         7.02878        -3.48615
   C       -4.56848         5.87928        -1.29409
   C       -4.47331         2.91601        -0.25381
   C       -4.28546         1.65096         0.24606
   C       -4.90744         0.51341        -0.28277
   N       -5.72095         0.56381        -1.34865
   C       -6.06440        -0.69894        -1.61381
   C       -5.41173        -1.63377        -0.68468
   C       -5.80327        -3.02512        -0.95786
   O       -5.44601        -4.02544        -0.36956
   C       -6.71435        -2.87242        -2.10027
   C       -6.84476        -1.44818        -2.47436
   N       -7.69161        -1.30280        -3.51538
   C       -8.09667        -2.52305        -3.80190
   C       -7.53198        -3.54511        -2.95712
   C       -4.69190        -0.87303         0.19146
   C       -3.96366        -1.40503         1.30002
   C       -3.73346        -0.83575         2.49998
   C       -3.06696        -1.52682         3.56102
   C       -3.03866        -2.86021         3.79826
   C       -1.98836        -3.42031         4.69904
   O       -1.30712        -2.79001         5.47894
   C       -1.94478        -4.85861         4.39579
   C       -2.99239        -5.18252         3.53344
   C       -3.79214        -3.98966         3.26999
   C       -5.09386        -4.00022         2.85424
   C       -5.91615        -2.85673         2.77901
   N       -6.64436        -1.97062         2.73871
   C       -5.81769        -5.17466         2.54969
   N       -6.46513        -6.09663         2.33471
   C       -3.15394        -6.49386         3.06709
   C       -2.27799        -7.45630         3.49605
   C       -1.21856        -7.16626         4.38495
   C       -1.02799        -5.83103         4.84314
   C        0.04955        -5.53994         5.70339
   C        0.89208        -6.53624         6.11327
   C        0.69906        -7.85700         5.67850
   C       -0.32876        -8.16503         4.82985
   H        1.52901         2.73531        11.13578
   H        1.85222         0.42498        11.89551
   H       -0.65242        -1.21784         7.23658
   H       -0.36758        -3.48816         8.10341
   H        0.74911        -3.87671        10.26908
   H        1.56296        -1.97463        11.60422
   H       -0.68661         3.20238         5.31814
   H        3.55115        10.60721         7.20747
   H        2.17265        11.13272         4.94546
   H       -1.49838         4.38134         3.80640
   H       -1.32238         7.18641         2.58435
   H       -2.37928         8.27770         0.85911
   H       -2.95137        10.09389        -0.54539
   H       -4.59495         9.97566        -1.20306
   H       -3.22292         9.62669        -2.23554
   H       -6.30848         7.71522        -4.23608
   H       -6.75287         6.58881        -2.93060
   H       -5.35113         6.23574        -3.98093
   H       -5.16971         5.20559        -1.88123
   H       -5.13312         3.02879        -1.10182
   H       -3.60368         1.51056         1.07281
   H       -8.79022        -2.68618        -4.60863
   H       -7.73629        -4.59543        -3.02221
   H       -3.63449        -2.42638         1.14413
   H       -4.02706         0.18491         2.70004
   H       -2.46618        -0.92235         4.23502
   H       -3.94223        -6.73753         2.37377
   H       -2.38819        -8.47330         3.14838
   H        0.19573        -4.51907         6.01966
   H        1.71656        -6.31186         6.77391
   H        1.37480        -8.62915         6.01545
   H       -0.47368        -9.17929         4.48703
*
