# ORCA input file
# SCF done       -166.764337579316          0.000573193184
! CAM-B3LYP def2-SVP def2/J RIJCOSX Grid4 TightSCF
%maxcore 5000
%tddft
    Mode sTDDFT
    Ethresh 5.0
    maxcore 5000
end

%pal
  nprocs 6
  end
* xyz 0 1
   C       -1.69447         1.90150         4.66128
   N       -1.55621         1.78638         5.97187
   C       -1.72974         0.57406         6.47790
   C       -2.03749        -0.51891         5.68578
   C       -2.15684        -0.28921         4.30891
   N       -1.98123         0.94206         3.81031
   C       -2.46589        -1.36236         3.39137
   C       -2.58703        -1.17181         2.06145
   C       -2.87797        -2.23651         1.15911
   N       -3.03846        -3.48286         1.58028
   C       -3.27818        -4.21763         0.47600
   C       -3.26967        -3.38829        -0.73477
   C       -3.52440        -4.21636        -1.92005
   O       -3.58330        -3.88127        -3.08757
   C       -3.68847        -5.56621        -1.34826
   C       -3.53101        -5.52253         0.11625
   N       -3.67799        -6.75855         0.65214
   C       -3.91126        -7.54805        -0.36979
   C       -3.93121        -6.86934        -1.64804
   C       -3.01790        -2.10244        -0.31029
   C       -2.90756        -0.88553        -1.03626
   C       -3.01227        -0.83651        -2.38565
   C       -2.91645         0.32497        -3.22211
   C       -2.95332         0.13172        -4.59452
   C       -2.85638         1.21656        -5.47703
   C       -2.86076         1.30152        -6.87444
   C       -2.80049         0.25208        -7.92326
   C       -1.30895         0.05174        -8.32442
   N       -0.83293         1.17729        -9.10203
   C       -3.41554        -1.10415        -7.56081
   N       -3.54672        -1.90081        -8.77166
   C       -2.70900         2.69276        -7.20497
   C       -2.66576         3.31193        -8.40223
   C       -2.33335         4.75593        -8.49271
   C       -2.35019         5.49505        -7.19224
   C       -2.45307         4.86132        -6.00319
   C       -2.61036         3.46076        -5.95886
   C       -2.71959         2.55358        -4.91667
   C       -2.69606         2.73051        -3.51698
   C       -2.78974         1.64939        -2.69883
   C       -0.88017         4.82308        -8.88715
   C       -0.39541         5.57898        -9.88519
   C        0.99646         5.59974       -10.19553
   N        1.87746         4.88352        -9.50567
   C        3.07244         5.13075       -10.06817
   C        2.95196         6.06622       -11.20042
   C        4.27552         6.32306       -11.79563
   O        4.55845         7.03272       -12.73712
   C        5.16888         5.49915       -10.96330
   C        4.39747         4.78689        -9.92712
   N        5.21319         4.02515        -9.16033
   C        6.41839         4.22101        -9.64592
   C        6.46276         5.12722       -10.76988
   C        1.61829         6.37238       -11.29576
   C        0.91483         7.21488       -12.20850
   C        1.49599         7.88891       -13.21797
   C        0.73161         8.72222       -14.12402
   N       -0.59027         8.82630       -13.93610
   C       -1.25367         9.59391       -14.77918
   C       -0.63674        10.26935       -15.81971
   C        0.74761        10.09952       -15.94446
   N        1.41169         9.32653       -15.09049
   C        1.50064        10.75762       -17.00523
   C        2.81228        10.61434       -17.14962
   H       -1.55451         2.89195         4.24571
   H       -1.61559         0.48814         7.55111
   H       -2.17893        -1.50331         6.10141
   H       -2.59925        -2.35341         3.80054
   H       -2.45113        -0.17547         1.66690
   H       -4.06655        -8.60205        -0.21708
   H       -4.10392        -7.33397        -2.59891
   H       -2.72768         0.01046        -0.45984
   H       -3.17652        -1.76845        -2.91127
   H       -3.05411        -0.87416        -4.96694
   H       -3.31767         0.62054        -8.81584
   H       -1.25894        -0.90098        -8.86670
   H       -0.71443        -0.03165        -7.41237
   H       -1.03461         1.05346       -10.08675
   H        0.16108         1.32664        -8.99211
   H       -4.37313        -0.94006        -7.04097
   H       -2.74492        -1.64927        -6.89384
   H       -4.26498        -1.51449        -9.37584
   H       -3.81519        -2.85069        -8.54203
   H       -2.78905         2.78167        -9.33234
   H       -2.94274         5.26095        -9.24874
   H       -2.20611         6.56244        -7.25043
   H       -2.43037         5.42090        -5.07927
   H       -2.60180         3.72645        -3.10964
   H       -2.77565         1.78773        -1.62923
   H       -0.19940         4.23409        -8.29162
   H       -1.05303         6.18281       -10.49481
   H        7.26604         3.72329        -9.20734
   H        7.34544         5.41640       -11.30524
   H       -0.15482         7.31384       -12.08399
   H        2.55908         7.84034       -13.40418
   H       -2.32186         9.66684       -14.61009
   H       -1.19314        10.89368       -16.50021
   H        0.92048        11.37687       -17.67684
   H        3.36685         9.99227       -16.46801
   H        3.35736        11.10442       -17.93794
*
