# ORCA input file
# SCF done       -253.714254578363          0.000495036127
! CAM-B3LYP def2-SVP def2/J RIJCOSX Grid4 TightSCF
%maxcore 5000
%tddft
    Mode sTDDFT
    Ethresh 5.0
    maxcore 5000
end

%pal
  nprocs 6
  end
* xyz 0 1
   C       -3.99488       -16.75525        -4.88162
   C       -4.95257       -17.30588        -4.04178
   C       -5.73238       -16.50430        -3.22152
   C       -5.58231       -15.12512        -3.22233
   C       -4.62717       -14.56573        -4.05296
   C       -3.82553       -15.38049        -4.88423
   C       -2.90491       -14.52944        -5.63132
   C       -2.04778       -14.94565        -6.61954
   C       -1.93070       -16.28092        -7.05530
   N       -1.78494       -17.34632        -7.45843
   C       -1.20650       -14.10003        -7.36922
   N       -0.50912       -13.46124        -8.02264
   C       -3.07524       -13.18144        -5.11998
   C       -4.27321       -13.17690        -4.30150
   C       -5.07926       -12.08986        -4.06827
   C       -4.85920       -10.83640        -4.67442
   N       -4.73587        -9.82886        -5.21176
   C       -6.24377       -12.12671        -3.28072
   N       -7.18071       -12.09604        -2.61664
   C       -2.17665       -12.15724        -5.30913
   C       -1.97759       -11.01061        -4.52871
   S       -2.52239       -10.85500        -2.87533
   C       -1.78845        -9.28890        -2.72033
   C       -1.14757        -8.92050        -3.90189
   C       -1.22901        -9.88968        -4.89976
   C       -0.62610        -9.71389        -6.25476
   C        0.44292        -8.62118        -6.23001
   C        1.66387        -9.10657        -5.50034
   O        1.78408       -10.13999        -4.91174
   C        2.86956        -8.11108        -5.53346
   F        2.88450        -7.35032        -6.63847
   F        2.82048        -7.26719        -4.48801
   F        4.03612        -8.74841        -5.47474
   C       -0.11914        -7.35677        -5.55673
   C       -0.43017        -7.61795        -4.08392
   C       -1.89258        -8.54476        -1.52131
   C       -2.62449        -8.95870        -0.45708
   C       -2.83139        -8.28337         0.78661
   C       -3.67798        -8.87401         1.70552
   C       -3.93870        -8.25257         2.93798
   C       -4.74154        -8.63516         4.00347
   C       -5.64533        -9.81519         4.14864
   C       -6.92803        -9.59209         3.32158
   N       -7.65240        -8.44813         3.84777
   C       -4.98541       -11.17622         3.83159
   N       -4.97155       -11.50680         2.41574
   C       -4.63832        -7.58483         4.99137
   C       -5.21684        -7.44548         6.19590
   C       -4.99013        -6.23737         7.04414
   C       -4.04332        -5.24090         6.45748
   C       -3.45960        -5.40193         5.25647
   C       -3.72915        -6.55268         4.47543
   C       -3.30509        -6.97111         3.23318
   C       -2.43255        -6.39449         2.27774
   C       -2.20721        -7.02759         1.10081
   C       -4.54274        -6.68487         8.41770
   C       -5.35234        -7.27157         9.29464
   C       -4.92885        -7.77034        10.58754
   S       -5.28630        -9.41163        11.00134
   C       -4.46337        -9.25415        12.53209
   C       -3.97625        -7.96375        12.69663
   C       -4.23673        -7.13187        11.59391
   C       -3.86474        -5.67985        11.58883
   C       -2.68794        -5.43773        12.53438
   C       -1.44042        -6.05383        11.96660
   O       -1.35326        -6.67122        10.94594
   C       -0.15531        -5.81795        12.82374
   F       -0.18665        -4.64585        13.47696
   F       -0.01283        -6.77529        13.75374
   F        0.94178        -5.82367        12.07130
   C       -3.01993        -5.99820        13.92781
   C       -3.19314        -7.51621        13.89054
   C       -4.35982       -10.34014        13.42509
   C       -4.81838       -11.59520        13.15942
   C       -4.69979       -12.65145        14.07980
   C       -5.20759       -13.91718        13.93614
   C       -4.75378       -15.08155        14.68355
   C       -4.09310       -15.08937        15.88344
   C       -3.77426       -13.94217        16.63972
   N       -3.48953       -13.05179        17.30690
   C       -3.68191       -16.26116        16.55279
   N       -3.32271       -17.17359        17.14951
   C       -5.14665       -16.25371        13.91150
   C       -5.94124       -15.83573        12.81947
   C       -6.42909       -16.75764        11.90863
   C       -6.11986       -18.09731        12.09198
   C       -5.34755       -18.51040        13.16792
   C       -4.85505       -17.59672        14.08822
   C       -6.12030       -14.39379        12.90875
   C       -7.11687       -13.67310        12.30323
   C       -7.97117       -14.19409        11.31006
   N       -8.67497       -14.54919        10.47540
   C       -7.49173       -12.36436        12.67659
   N       -7.88254       -11.32770        12.97732
   H       -3.39879       -17.39487        -5.51144
   H       -5.08901       -18.37655        -4.02837
   H       -6.46721       -16.95738        -2.57337
   H       -6.19108       -14.50890        -2.58030
   H       -1.46303       -12.27800        -6.11264
   H       -1.41045        -9.43870        -6.96498
   H       -0.18583       -10.65294        -6.59817
   H        0.74684        -8.37159        -7.25279
   H       -1.03701        -7.08632        -6.08107
   H        0.57814        -6.52333        -5.64729
   H       -1.04254        -6.80071        -3.69678
   H        0.49642        -7.63647        -3.50016
   H       -1.36341        -7.60352        -1.50035
   H       -3.13842        -9.90936        -0.54900
   H       -4.14281        -9.82651         1.49611
   H       -5.94664        -9.86302         5.20109
   H       -7.52467       -10.52117         3.33541
   H       -6.65288        -9.36918         2.28950
   H       -8.06341        -8.67196         4.74818
   H       -8.40371        -8.18525         3.22094
   H       -5.50840       -11.94348         4.42771
   H       -3.94719       -11.14133         4.17284
   H       -5.90951       -11.69780         2.08104
   H       -4.41281       -12.33852         2.26129
   H       -5.87197        -8.19792         6.61130
   H       -5.97297        -5.75282         7.16310
   H       -3.84847        -4.36602         7.05999
   H       -2.78304        -4.65363         4.86978
   H       -1.95547        -5.45057         2.49846
   H       -1.54173        -6.58616         0.37527
   H       -3.49171        -6.56068         8.63498
   H       -6.38610        -7.46939         9.03593
   H       -4.72045        -5.08921        11.92848
   H       -3.61446        -5.35378        10.58054
   H       -2.49718        -4.36191        12.63036
   H       -3.95104        -5.53114        14.25323
   H       -2.24681        -5.73405        14.64957
   H       -3.68831        -7.84239        14.80765
   H       -2.21262        -8.00313        13.86449
   H       -3.90366       -10.14122        14.38594
   H       -5.25391       -11.78422        12.18815
   H       -4.07702       -12.45585        14.94208
   H       -7.02616       -16.44828        11.06605
   H       -6.48595       -18.82642        11.38537
   H       -5.12139       -19.55837        13.29201
   H       -4.25358       -17.93504        14.91585
*
