# ORCA input file
# SCF done       -229.945900779973          0.003187500028
! CAM-B3LYP def2-SVP def2/J RIJCOSX Grid4 TightSCF
%maxcore 5000
%tddft
    Mode sTDDFT
    Ethresh 5.0
    maxcore 5000
end

%pal
  nprocs 6
  end
* xyz 0 1
   C        3.71551         7.50730         3.67089
   C        4.66092         6.58558         4.01216
   C        5.92368         6.91259         4.55729
   N        6.95832         7.11733         5.00714
   C        4.51686         5.18759         3.86286
   N        4.47489         4.04623         3.75849
   C        3.83632         8.95393         3.77262
   C        2.63568         9.55932         3.28615
   C        2.47980        10.92157         3.25101
   C        3.52776        11.74569         3.70844
   C        4.72679        11.14967         4.20012
   C        4.86280         9.74260         4.22331
   C        5.76330        11.98901         4.65518
   C        5.62330        13.35081         4.62553
   C        4.44341        13.93616         4.14047
   C        3.41655        13.15108         3.69089
   C        1.70389         8.52035         2.87502
   O        0.56669         8.66627         2.43636
   C        2.39684         7.22331         3.10758
   C        1.84336         6.03024         2.82511
   C        0.51137         5.96007         2.23301
   C        0.27731         6.30986         0.90024
   C        1.34272         6.62953        -0.06126
   O        2.52488         6.57576         0.11144
   S        0.58172         7.15721        -1.60137
   C       -1.08732         6.99793        -0.96252
   O       -2.06961         7.25468        -1.59620
   C       -1.01660         6.51680         0.42639
   C       -2.14304         6.34114         1.24243
   C       -1.91500         5.79530         2.50733
   C       -0.61395         5.63800         2.99124
   C       -0.52476         5.25955         4.41046
   O        0.47454         5.16959         5.06297
   S       -2.17958         4.98819         5.03645
   C       -2.96624         5.44512         3.48108
   O       -4.14664         5.41891         3.30933
   C       -3.39813         6.97513         0.86700
   S       -4.87449         6.23269         0.53533
   C       -5.68299         7.76932         0.25108
   C       -4.76373         8.85470         0.43396
   C       -3.47168         8.37694         0.80614
   C       -2.44148         9.26341         1.14324
   C       -2.64747        10.62404         1.09006
   C       -1.59691        11.60635         1.46888
   O       -1.77617        12.80453         1.34600
   O       -0.44670        11.18322         1.96266
   C       -3.92168        11.11615         0.65848
   O       -4.18709        12.40600         0.56308
   C       -4.94998        10.22638         0.33992
   C       -7.04219         7.70593         0.03854
   C       -7.91037         8.78416        -0.15043
   C       -9.28139         8.72509        -0.12313
   C      -10.24110         7.67593         0.07908
   C      -10.12772         6.20529         0.14910
   O       -9.15084         5.52370         0.02308
   S      -11.75790         5.54002         0.42854
   C      -12.57599         7.17784         0.41818
   O      -13.74869         7.31958         0.57125
   C      -11.52532         8.14921         0.20915
   C      -11.53262         9.62632         0.16100
   C      -10.70551        10.29573         1.19373
   C      -10.06871         9.98496        -0.10691
   C       -9.88431        11.15527        -0.99261
   O       -8.86346        11.60608        -1.41218
   S      -11.51240        11.83533        -1.35837
   C      -12.48308        10.50931        -0.56255
   O      -13.66054        10.43858        -0.65716
   C      -10.57009        10.90985         2.34860
   C       -9.33638        11.47432         2.84439
   C       -8.07842        10.88663         2.96741
   C       -7.77820         9.51559         2.89491
   C       -6.49407         8.99122         3.03797
   N       -5.44792         8.50780         3.08023
   C       -8.76226         8.53611         2.75558
   N       -9.55493         7.71192         2.61192
   C       -7.11880        11.93615         3.33018
   C       -7.83984        13.15393         3.49200
   C       -9.27754        12.89026         3.25887
   O      -10.20772        13.66069         3.36188
   C       -7.21395        14.32095         3.80972
   C       -5.80729        14.32271         3.98256
   C       -5.08513        13.10574         3.83876
   C       -5.76786        11.90704         3.50904
   C       -3.69194        13.11685         4.03207
   C       -3.03358        14.27869         4.33731
   C       -3.74378        15.47863         4.46831
   C       -5.10324        15.49925         4.29914
   H        1.57312        11.37169         2.87660
   H        5.78165         9.32014         4.59764
   H        6.67048        11.53599         5.02657
   H        6.42346        13.98547         4.97564
   H        4.35338        15.01211         4.12320
   H        2.50574        13.59245         3.31402
   H        2.34516         5.09780         3.03934
   H       -1.49500         8.85300         1.46071
   H       -0.29838        10.21465         2.06805
   H       -3.37899        12.92728         0.80929
   H       -5.87723        10.67798         0.03451
   H       -7.48691         6.71784         0.06803
   H       -7.50237         9.77216        -0.29579
   H      -11.44885        11.08942         2.96061
   H       -7.77622        15.23496         3.92865
   H       -5.19444        10.99893         3.40531
   H       -3.14938        12.18614         3.94094
   H       -1.96345        14.27459         4.47677
   H       -3.21252        16.38745         4.70817
   H       -5.65687        16.42057         4.40629
*
