# ORCA input file
# SCF done       -195.144783578179          0.000818285839
! CAM-B3LYP def2-SVP def2/J RIJCOSX Grid4 TightSCF
%maxcore 5000
%tddft
    Mode sTDDFT
    Ethresh 5.0
    maxcore 5000
end

%pal
  nprocs 6
  end
* xyz 0 1
   C        3.26826         7.63934         3.59616
   C        2.72247         8.71314         2.93124
   C        2.32696         9.90662         3.56192
   N        2.01469        10.90837         4.02935
   C        2.40222         8.68624         1.55945
   N        2.05449         8.67731         0.46466
   C        3.32349         7.47400         5.04550
   C        3.51946         6.09093         5.33178
   C        3.57516         5.62621         6.61303
   C        3.44323         6.53977         7.68453
   C        3.25910         7.92402         7.40432
   C        3.19972         8.37690         6.06532
   C        3.13134         8.82389         8.48112
   C        3.17995         8.37980         9.77467
   C        3.36143         7.01679        10.04992
   C        3.48999         6.11661         9.02703
   C        3.64543         5.34543         4.06338
   O        3.77536         4.15169         3.90786
   C        3.64056         6.38296         3.00087
   C        4.01568         6.06930         1.71992
   C        4.50806         6.94372         0.73601
   C        5.14418         8.23472         1.01685
   C        5.59274         8.79157        -0.11491
   C        5.25104         7.91292        -1.24986
   O        5.47269         8.12479        -2.42067
   C        4.57616         6.71439        -0.63658
   C        4.03689         5.62900        -1.34227
   C        4.12487         5.50400        -2.70077
   C        3.56177         4.48587        -3.51963
   C        3.76507         4.58271        -4.89135
   C        3.13257         3.70078        -5.77251
   C        3.12662         3.62872        -7.16648
   C        3.92500         4.38088        -8.16518
   C        4.13403         5.87166        -7.85444
   N        4.42706         6.56987        -9.09615
   C        5.30879         3.70081        -8.35250
   N        6.02473         3.64203        -7.09528
   C        2.23611         2.55086        -7.52019
   C        1.87712         2.05891        -8.72201
   C        1.02100         0.84744        -8.82495
   C        0.33208         0.46473        -7.54936
   C        0.70219         0.96467        -6.35404
   C        1.68801         1.97884        -6.27991
   C        2.25559         2.66972        -5.22859
   C        2.13423         2.53251        -3.82466
   C        2.76741         3.40697        -3.00379
   C        1.93374        -0.33531        -9.11386
   C        2.97895        -0.59751        -8.31438
   C        3.85106        -1.71720        -8.37548
   C        3.99385        -2.65061        -9.49479
   C        4.89121        -3.59724        -9.19324
   C        5.40423        -3.35220        -7.81758
   O        6.21997        -4.01415        -7.22104
   C        4.69170        -2.11962        -7.34919
   C        4.79559        -1.52184        -6.07863
   C        5.46496        -2.05089        -5.01274
   C        5.49592        -1.48486        -3.72154
   C        5.35712        -0.17806        -3.32228
   C        5.37835         0.22421        -1.92671
   C        4.98949        -0.55266        -0.86752
   C        5.04453        -0.13762         0.47894
   N        5.08606         0.13652         1.59285
   C        4.44136        -1.84679        -0.99303
   N        3.95470        -2.88643        -1.02367
   C        5.82593         1.60717        -1.86655
   C        5.95261         2.09008        -3.20106
   C        5.51705         1.04333        -4.14328
   O        5.35253         1.18513        -5.34227
   C        6.44873         3.33389        -3.46852
   C        6.84718         4.15988        -2.39166
   C        6.67288         3.70190        -1.05417
   C        6.15089         2.41077        -0.80797
   C        7.05761         4.54248         0.00864
   C        7.61644         5.76780        -0.23637
   C        7.81279         6.20739        -1.55329
   C        7.42676         5.42482        -2.60767
   H        3.71570         4.57380         6.80969
   H        3.06481         9.43140         5.87996
   H        2.98879         9.87243         8.26371
   H        3.07840         9.07710        10.59270
   H        3.39842         6.68316        11.07623
   H        3.62997         5.06549         9.23319
   H        4.00870         5.00943         1.48638
   H        5.27454         8.62156         2.01234
   H        6.11930         9.71969        -0.23129
   H        3.52642         4.87488        -0.75696
   H        4.64840         6.28610        -3.23233
   H        4.40366         5.36132        -5.27259
   H        3.41602         4.32055        -9.13333
   H        5.00572         5.97873        -7.20800
   H        3.24794         6.26622        -7.33085
   H        4.74146         7.51441        -8.90695
   H        3.59670         6.63103        -9.67667
   H        5.87211         4.32128        -9.05324
   H        5.14573         2.71001        -8.80750
   H        5.66695         2.88262        -6.52016
   H        7.00914         3.46681        -7.25991
   H        2.26267         2.46130        -9.64825
   H        0.30322         0.95293        -9.64353
   H       -0.41810        -0.30652        -7.62660
   H        0.22975         0.62442        -5.44422
   H        1.53093         1.73182        -3.42143
   H        2.66845         3.30504        -1.93423
   H        1.65059        -0.98980        -9.92384
   H        3.16696         0.08679        -7.49688
   H        3.45076        -2.55063       -10.41768
   H        5.22627        -4.41500        -9.80264
   H        4.25072        -0.60127        -5.92925
   H        5.93125        -3.02019        -5.12297
   H        5.71936        -2.19460        -2.93142
   H        6.55369         3.68341        -4.48492
   H        6.05208         2.07725         0.21335
   H        6.91059         4.19685         1.02156
   H        7.91384         6.40265         0.58523
   H        8.26479         7.17142        -1.72979
   H        7.56395         5.76559        -3.62283
*
