# ORCA input file
# SCF done       -244.319070606478          0.000282545648
! CAM-B3LYP def2-SVP def2/J RIJCOSX Grid4 TightSCF
%maxcore 5000
%tddft
    Mode sTDDFT
    Ethresh 5.0
    maxcore 5000
end

%pal
  nprocs 6
  end
* xyz 0 1
   C       -7.16142         6.42590        -8.34388
   C       -5.93355         5.99709        -8.77749
   C       -5.70379         5.41086       -10.04002
   N       -5.44413         4.91851       -11.04449
   C       -4.72103         6.07100        -8.06002
   N       -3.68587         6.09020        -7.56167
   C       -8.38840         6.38968        -9.13161
   C       -9.43499         6.97518        -8.36479
   C      -10.70668         7.09196        -8.84613
   C      -10.99574         6.62412       -10.14788
   C       -9.95550         6.03422       -10.92136
   C       -8.64876         5.92262       -10.39229
   C      -10.25372         5.56961       -12.21821
   C      -11.51796         5.68332       -12.72950
   C      -12.54150         6.26503       -11.96715
   C      -12.28587         6.72530       -10.70375
   C       -8.90505         7.38989        -7.05751
   O       -9.55179         7.85203        -6.13167
   C       -7.47213         7.05033        -7.06927
   C       -6.58241         7.17728        -6.03733
   C       -6.64755         7.84930        -4.79586
   S       -5.65843         7.09597        -3.56009
   C       -6.16386         8.23739        -2.36288
   C       -7.02059         9.18098        -2.91634
   C       -7.25983         8.99721        -4.28762
   C       -8.01320        10.01873        -5.09380
   C       -7.13777        10.59934        -6.19851
   F       -5.97404        11.07535        -5.72241
   F       -6.81465         9.74517        -7.17914
   F       -7.74187        11.63336        -6.81087
   C       -8.50577        11.20650        -4.24978
   C       -8.92035        10.75259        -2.85989
   C       -7.68294        10.26057        -2.11888
   C       -5.67871         8.18290        -1.02747
   C       -4.85187         7.21284        -0.57721
   C       -4.25008         7.11057         0.72358
   C       -4.28351         8.12831         1.65210
   C       -3.60823         7.99420         2.88119
   C       -3.45223         8.86874         3.94812
   C       -4.13631        10.16617         4.23180
   C       -3.90077        11.23053         3.14472
   N       -3.84460        12.54326         3.76078
   C       -5.64067         9.92117         4.45408
   N       -5.85469         8.97282         5.54496
   C       -2.61425         8.19810         4.91267
   C       -2.08878         8.63291         6.07178
   C       -1.37460         7.71000         6.99089
   C       -1.13176         6.33781         6.43418
   C       -1.56637         5.95844         5.21936
   C       -2.31982         6.85024         4.41522
   C       -2.89334         6.75066         3.16506
   C       -2.89430         5.71379         2.20213
   C       -3.54354         5.89605         1.02764
   C       -2.16644         7.59795         8.27342
   C       -3.44175         7.98458         8.36032
   C       -4.23979         7.95671         9.54793
   S       -3.80437         7.00812        10.92607
   C       -5.25165         7.49027        11.77677
   C       -6.01246         8.35705        11.00375
   C       -5.43049         8.63596         9.75685
   C       -6.02262         9.61936         8.78281
   C       -5.19566        10.90507         8.78702
   F       -3.92949        10.74362         8.37683
   F       -5.72662        11.83451         7.97391
   F       -5.12353        11.46584        10.00498
   C       -7.47843        10.01216         9.12068
   C       -8.15985         9.01284        10.04664
   C       -7.36458         8.88694        11.34562
   C       -5.52394         7.01412        13.07766
   C       -4.71801         6.15781        13.76408
   C       -5.03666         5.71032        15.06098
   C       -4.28030         4.83721        15.79605
   C       -4.56906         4.35005        17.12976
   C       -5.65587         4.66178        17.90860
   C       -5.87669         4.14659        19.20250
   N       -6.12122         3.76665        20.25842
   C       -6.70889         5.52584        17.54684
   N       -7.60634         6.21061        17.33116
   C       -3.49041         3.44551        17.51701
   C       -2.55622         3.36726        16.44567
   C       -3.00814         4.22671        15.33691
   O       -2.44225         4.38686        14.27413
   C       -1.43794         2.58867        16.51659
   C       -1.19500         1.83627        17.68754
   C       -2.12240         1.91067        18.76604
   C       -3.27291         2.72628        18.66239
   C       -1.87030         1.15736        19.93066
   C       -0.75712         0.36750        20.02658
   C        0.15483         0.29429        18.96323
   C       -0.05951         1.01329        17.81867
   H      -11.48324         7.54022        -8.24395
   H       -7.88581         5.46792       -11.00344
   H       -9.46155         5.12331       -12.80137
   H      -11.73589         5.32591       -13.72481
   H      -13.53353         6.34700       -12.38578
   H      -13.07058         7.17425       -10.11226
   H       -5.66589         6.60669        -6.14217
   H       -8.86907         9.52284        -5.57131
   H       -9.33926        11.68360        -4.76644
   H       -7.70416        11.94412        -4.15496
   H       -9.65035         9.94517        -2.93902
   H       -9.37845        11.58087        -2.31839
   H       -7.95913         9.87393        -1.13594
   H       -6.98718        11.09246        -1.96911
   H       -5.99600         8.98423        -0.37621
   H       -4.59735         6.41832        -1.26949
   H       -4.78906         9.05445         1.42745
   H       -3.72757        10.57340         5.16019
   H       -4.67736        11.14762         2.36492
   H       -2.93145        11.04997         2.67172
   H       -4.72864        12.77221         4.20193
   H       -3.64354        13.25751         3.07049
   H       -6.08530         9.57164         3.50871
   H       -6.12847        10.85782         4.73951
   H       -5.35198         8.11327         5.33542
   H       -6.84218         8.73720         5.59048
   H       -2.21558         9.64904         6.41838
   H       -0.40263         8.15213         7.25718
   H       -0.58554         5.65945         7.07131
   H       -1.35838         4.96576         4.84684
   H       -2.36515         4.79551         2.41015
   H       -3.54164         5.11786         0.27832
   H       -1.64944         7.18722         9.12918
   H       -3.93679         8.38594         7.48698
   H       -5.95307         9.23045         7.75722
   H       -8.04299        10.11497         8.19372
   H       -7.48275        10.98592         9.61622
   H       -8.22254         8.03516         9.56436
   H       -9.17313         9.35454        10.25944
   H       -7.87396         8.22172        12.04294
   H       -7.27409         9.86884        11.81913
   H       -6.43495         7.36835        13.54408
   H       -3.80472         5.80135        13.30938
   H       -5.95243         6.09534        15.49125
   H       -0.74654         2.54728        15.68794
   H       -3.95432         2.75905        19.49743
   H       -2.57556         1.21668        20.74669
   H       -0.57304        -0.20576        20.92290
   H        1.02795        -0.33439        19.05553
   H        0.63920         0.96127        16.99633
*
