# ORCA input file
# SCF done       -250.878825307577          0.000864700725
! CAM-B3LYP def2-SVP def2/J RIJCOSX Grid4 TightSCF
%maxcore 5000
%tddft
    Mode sTDDFT
    Ethresh 5.0
    maxcore 5000
end

%pal
  nprocs 6
  end
* xyz 0 1
   C       -6.06672        12.00933         6.03658
   C       -6.22910        13.35583         6.25135
   C       -7.41977        13.94159         6.72416
   N       -8.36608        14.47659         7.09503
   C       -5.21873        14.31952         6.05954
   N       -4.43336        15.15022         5.94584
   C       -7.04639        10.97048         6.33128
   C       -6.44186         9.70294         6.09446
   C       -7.11886         8.53445         6.28797
   C       -8.45866         8.58103         6.73643
   C       -9.07260         9.84511         6.96868
   C       -8.34448        11.03987         6.75976
   C      -10.41154         9.87902         7.40699
   C      -11.11224         8.72086         7.60881
   C      -10.50621         7.47667         7.38181
   C       -9.20726         7.40845         6.95567
   C       -5.05804         9.89491         5.62426
   O       -4.28629         9.02629         5.26876
   C       -4.86317        11.36389         5.56495
   C       -3.82666        11.98369         4.91149
   C       -2.59616        11.39985         4.56929
   S       -1.78926        11.91369         3.11801
   C       -0.54377        10.71994         3.26751
   C       -0.66680        10.02887         4.49177
   C       -1.83557        10.41706         5.22478
   C       -2.08562         9.90664         6.51656
   C       -1.21335         8.97839         7.00226
   C       -1.20262         8.25887         8.29503
   O       -1.98446         8.30975         9.21097
   N       -0.06818         7.45895         8.26321
   C        0.32570         6.59981         9.35848
   C        1.17722         7.35481        10.37324
   C        0.67130         7.59572         7.09737
   O        1.69464         7.00455         6.85374
   C       -0.06796         8.57467         6.27288
   C        0.23692         9.10005         5.04988
   C        0.33022        10.56654         2.16554
   C        1.10327         9.48689         1.88267
   C        1.89625         9.31231         0.70013
   C        2.07411        10.30528        -0.24217
   C        2.76411        10.03540        -1.43807
   C        3.00070        10.82300        -2.55813
   C        2.65783        12.25047        -2.81586
   C        1.18914        12.41871        -3.26732
   N        0.27182        11.96175        -2.23971
   C        2.93411        13.18410        -1.62458
   N        3.13894        14.53512        -2.12225
   C        3.64212         9.96971        -3.53277
   C        3.99270        10.19567        -4.81215
   C        4.52661         9.10844        -5.67589
   C        4.82289         7.82485        -4.95346
   C        4.47850         7.62169        -3.67043
   C        3.84047         8.64533        -2.92675
   C        3.30182         8.69515        -1.66079
   C        3.16786         7.71589        -0.64598
   C        2.49128         8.01912         0.48664
   C        5.70686         9.52176        -6.50888
   C        6.52840        10.52945        -6.20235
   C        7.64576        10.94218        -7.00592
   S        9.05090        11.58945        -6.24948
   C        9.88439        11.81655        -7.75519
   C        9.09320        11.36941        -8.82336
   C        7.80092        10.90258        -8.39488
   C        6.82803        10.51918        -9.34925
   C        7.19750        10.51393       -10.65911
   C        6.42783        10.14521       -11.86629
   O        5.28088         9.78345       -11.96092
   N        7.31363        10.27700       -12.92465
   C        6.94200        10.04260       -14.30338
   C        6.40802        11.31448       -14.95282
   C        8.57942        10.69862       -12.53932
   O        9.50576        10.87950       -13.28912
   C        8.51233        10.85952       -11.07067
   C        9.45794        11.28730       -10.18742
   C       11.17705        12.39074        -7.72520
   C       11.78222        13.04774        -8.75206
   C       13.09433        13.57722        -8.71953
   C       14.17091        13.10499        -8.01999
   C       15.48328        13.72426        -8.01037
   C       15.74911        15.04567        -8.26028
   C       17.03923        15.61179        -8.21180
   N       18.06707        16.12266        -8.19405
   C       14.76575        16.01589        -8.54580
   N       14.01266        16.85775        -8.75217
   C       16.45095        12.71972        -7.59189
   C       15.74303        11.53317        -7.24772
   C       14.29572        11.74602        -7.42972
   O       13.41756        10.94513        -7.18503
   C       16.38701        10.40990        -6.81559
   C       17.79595        10.42221        -6.70882
   C       18.51173        11.60392        -7.05741
   C       17.81678        12.75307        -7.50014
   C       19.91734        11.60196        -6.95203
   C       20.58577        10.48803        -6.52192
   C       19.88009         9.32548        -6.17809
   C       18.51488         9.29358        -6.26883
   H       -6.63773         7.58530         6.10406
   H       -8.83744        11.98251         6.93819
   H      -10.87343        10.83969         7.58208
   H      -12.13765         8.75768         7.94518
   H      -11.07331         6.57244         7.54583
   H       -8.73500         6.45301         6.77911
   H       -3.98308        12.99262         4.54713
   H       -2.91409        10.26075         7.10723
   H        0.88940         5.76648         8.93217
   H       -0.58794         6.23033         9.83059
   H        2.08043         7.73215         9.89912
   H        1.45900         6.68995        11.18479
   H        0.61614         8.19106        10.78393
   H        1.15915         8.83866         4.55900
   H        0.28117        11.37551         1.44828
   H        1.07654         8.63507         2.54642
   H        1.65020        11.28394        -0.09884
   H        3.27781        12.60066        -3.64876
   H        1.05687        11.89817        -4.23117
   H        1.02141        13.48675        -3.42140
   H        0.28619        10.94900        -2.17757
   H       -0.67484        12.24922        -2.45804
   H        3.78823        12.79597        -1.04515
   H        2.05450        13.20483        -0.98080
   H        4.02574        14.60540        -2.61104
   H        3.15550        15.19806        -1.35597
   H        3.84463        11.15608        -5.28806
   H        3.71732         8.88000        -6.39463
   H        5.30767         7.05627        -5.53514
   H        4.68185         6.67526        -3.19104
   H        3.59383         6.73475        -0.79528
   H        2.36893         7.27552         1.26088
   H        5.89795         8.90470        -7.37453
   H        6.39520        11.06293        -5.26935
   H        5.82472        10.26124        -9.05374
   H        6.17647         9.26292       -14.30738
   H        7.83462         9.69315       -14.82763
   H        5.52675        11.66608       -14.42107
   H        6.13706        11.11434       -15.98538
   H        7.16773        12.09251       -14.93450
   H       10.45402        11.52785       -10.51841
   H       11.67236        12.36104        -6.76564
   H       11.21159        13.27461        -9.64202
   H       13.26839        14.41086        -9.39064
   H       15.82853         9.52199        -6.55847
   H       18.38523        13.63061        -7.76510
   H       20.45616        12.49995        -7.21650
   H       21.66261        10.49680        -6.44418
   H       20.42341         8.45519        -5.84156
   H       17.96606         8.40106        -6.00578
*
