# ORCA input file
# SCF done       -106.556440401856          0.000975053506
! CAM-B3LYP def2-SVP def2/J RIJCOSX Grid4 TightSCF
%maxcore 5000
%tddft
    Mode sTDDFT
    Ethresh 5.0
    maxcore 5000
end

%pal
  nprocs 6
  end
* xyz 0 1
   C        1.24206         1.45636        -3.50964
   O        0.18059         0.66287        -3.69645
   C       -0.86813         1.26175        -3.10250
   C       -0.49827         2.43560        -2.53360
   C        0.90060         2.58174        -2.79468
   C        1.78936         3.64160        -2.41534
   C        1.41499         4.74975        -1.74084
   C        2.26548         5.82567        -1.34693
   C        3.61447         5.89430        -1.49015
   C        4.37599         7.01410        -1.07832
   C        5.73001         7.08907        -1.19873
   C        6.55119         8.18209        -0.82112
   C        6.11491         9.37500        -0.32960
   C        6.97653        10.43512         0.02384
   S        6.35568        11.96343         0.61357
   C        7.92975        12.70662         0.80528
   C        8.90739        11.77640         0.42234
   C        8.35809        10.53486        -0.00557
   O        9.33288         9.67458        -0.36781
   C       10.49701        10.35111        -0.17591
   N       11.70505         9.69136        -0.47766
   O       12.73043        10.32583        -0.29487
   O       11.64607         8.55154        -0.89251
   C       10.30787        11.62504         0.29960
   C        8.01315        14.02892         1.26314
   C        9.17318        14.72768         1.45235
   C        9.27419        16.06745         1.88933
   C        8.23074        16.89366         2.19134
   C        8.35241        18.23560         2.60928
   S        6.88628        19.15372         2.93739
   C        7.80473        20.53714         3.33190
   C        9.17487        20.30155         3.21806
   C        9.49026        19.01389         2.81429
   C        9.86276        21.56370         3.58133
   O       11.04540        21.79430         3.62098
   C        8.74288        22.52390         3.90544
   C        7.54972        21.88053         3.74683
   C        9.03192        23.87075         4.30271
   C        8.12749        24.80353         4.60639
   H        2.17925         1.13701        -3.92113
   H       -1.81305         0.75765        -3.15278
   H       -1.13087         3.11147        -1.99693
   H        2.81870         3.50660        -2.71657
   H        0.37267         4.85820        -1.47259
   H        1.76837         6.66752        -0.87965
   H        4.15588         5.06979        -1.93291
   H        3.82708         7.83975        -0.64610
   H        6.24640         6.23565        -1.61962
   H        7.61690         8.04891        -0.94817
   H        5.06023         9.56594        -0.19629
   H       11.09307        12.31869         0.51697
   H        7.06354        14.50253         1.46740
   H       10.10621        14.22456         1.24735
   H       10.27756        16.45915         1.98020
   H        7.21812        16.52460         2.10942
   H       10.49023        18.64897         2.67076
   H        6.56916        22.29229         3.90058
   H       10.08891        24.10227         4.34358
   H        7.06971        24.60510         4.57544
   H        8.42129        25.79666         4.89708
*
