# ORCA input file
# SCF done       -160.108130286269          0.000612344459
! CAM-B3LYP def2-SVP def2/J RIJCOSX Grid4 TightSCF
%maxcore 5000
%tddft
    Mode sTDDFT
    Ethresh 5.0
    maxcore 5000
end

%pal
  nprocs 6
  end
* xyz 0 1
   C       -0.44820         3.14144         0.07484
   O       -1.73763         3.00703         0.42284
   C       -2.05054         4.07448         1.17893
   C       -0.98244         4.89752         1.32322
   C        0.09036         4.29267         0.59686
   C        1.43869         4.75484         0.41564
   C        1.92054         5.92764         0.87150
   C        3.24336         6.43196         0.65299
   C        4.27113         5.72525         0.13347
   C        5.57064         6.26377        -0.12711
   C        6.50029         5.65279        -0.91746
   O        7.80273         6.12098        -1.03747
   C        8.08041         7.26075        -0.34723
   C        7.08653         7.93900         0.41905
   C        7.55980         9.06086         1.01451
   S        9.22903         9.30997         0.64937
   C        9.28489         7.88128        -0.31660
   O        5.81521         7.47319         0.52404
   C        6.32021         4.47092        -1.71863
   C        5.16111         4.03520        -2.24788
   N        5.01505         2.87559        -2.94995
   C        6.11121         2.27509        -3.72668
   N        5.52226         1.59653        -4.86885
   C        4.26186         2.29034        -5.06006
   N        3.27110         1.56208        -5.82518
   C        1.95316         1.95058        -5.35890
   C        1.91659         3.38173        -4.77286
   N        2.71490         3.51245        -3.57070
   C        3.77356         2.52636        -3.61033
   N        0.49217         3.53688        -4.61192
   C       -0.08128         3.00817        -5.84543
   N        0.89871         2.04851        -6.32987
   C        0.63867         1.10469        -7.26675
   C       -0.47133         1.05254        -8.04476
   C       -0.65345         0.08110        -9.05034
   C       -1.77867        -0.03298        -9.81896
   C       -2.02363        -0.96765       -10.85578
   C       -3.24421        -0.84947       -11.44376
   C       -4.04750         0.18246       -10.90257
   S       -3.18726         1.01250        -9.62586
   C       -5.33159         0.53284       -11.26257
   C       -6.13962        -0.03380       -12.27368
   C       -7.37489         0.52613       -12.37316
   C       -7.62204         1.56816       -11.44127
   S       -6.20443         1.81686       -10.43895
   C       -8.78673         2.27666       -11.32035
   C       -9.07102         3.29668       -10.39534
   S       -7.96312         3.89778        -9.17276
   C       -9.08255         5.04150        -8.53776
   C      -10.27219         4.98365        -9.22380
   C      -10.25372         4.00357       -10.26239
   O      -11.43523         3.96912       -10.91728
   C      -12.20422         4.91268       -10.31009
   N      -13.51676         5.10134       -10.79373
   O      -14.18457         5.95360       -10.23423
   O      -13.88946         4.41613       -11.72321
   C      -11.56911         5.56181        -9.28384
   H       -0.02138         2.37150        -0.53748
   H       -3.05406         4.13269         1.55162
   H       -0.95257         5.81312         1.87578
   H        2.07606         4.09014        -0.15209
   H        1.25252         6.58457         1.41159
   H        3.40867         7.47125         0.89998
   H        4.15719         4.67599        -0.08311
   H        7.03217         9.75015         1.63933
   H       10.19243         7.58669        -0.80008
   H        7.24478         3.96070        -1.94613
   H        4.23791         4.57824        -2.12529
   H        6.69353         1.58153        -3.11472
   H        6.77309         3.07353        -4.08797
   H        5.32892         0.62082        -4.66164
   H        4.51102         3.27510        -5.49205
   H        3.38260         1.73350        -6.81862
   H        1.65748         1.24085        -4.56318
   H        2.33205         4.07853        -5.52984
   H        2.13045         3.40659        -2.74769
   H        3.45277         1.54789        -3.19726
   H        0.20880         4.49302        -4.43394
   H       -0.24437         3.77767        -6.61869
   H       -1.04058         2.52303        -5.62179
   H        1.43289         0.38140        -7.38945
   H       -1.26484         1.77272        -7.90946
   H        0.14720        -0.62476        -9.22843
   H       -1.28324        -1.69794       -11.13221
   H       -3.59398        -1.47581       -12.24456
   H       -5.78759        -0.83535       -12.89811
   H       -8.12628         0.22646       -13.08202
   H       -9.59454         2.03484       -11.99828
   H       -8.79998         5.66800        -7.71840
   H      -11.98860         6.33548        -8.67510
*
