# ORCA input file
# SCF done       -123.473125499837          0.000756506756
! CAM-B3LYP def2-SVP def2/J RIJCOSX Grid4 TightSCF
%maxcore 5000
%tddft
    Mode sTDDFT
    Ethresh 5.0
    maxcore 5000
end

%pal
  nprocs 6
  end
* xyz 0 1
   C       12.04518         5.42899        -5.94029
   O       13.18226         5.37927        -6.64751
   C       13.71210         6.61584        -6.63605
   C       12.92896         7.46669        -5.92799
   C       11.81962         6.69672        -5.45959
   C       10.73220         7.19571        -4.66326
   C        9.69131         6.47048        -4.21567
   C        8.63584         7.03065        -3.43053
   C        7.58229         6.32892        -2.97585
   C        6.50392         6.89370        -2.18808
   C        5.46117         6.15604        -1.76332
   C        6.57378         8.26896        -1.86709
   C        6.64557         9.44760        -1.59888
   C        6.76390        10.80281        -1.29310
   C        5.74509        11.52122        -0.77378
   C        5.75202        12.89828        -0.41450
   S        4.32684        13.50987         0.37318
   C        4.98531        15.11098         0.55181
   C        6.26346        15.14378        -0.00254
   C        6.68708        13.91439        -0.54307
   S        8.22544        13.63617        -1.35720
   C        9.00087        15.17659        -1.72821
   O        9.94182        15.14528        -2.47398
   C        8.59701        16.47168        -1.07080
   O        9.25563        17.46240        -1.23712
   S        7.23084        16.61331         0.04130
   C        4.23897        16.15411         1.16114
   S        4.91549        17.75628         1.30360
   C        3.46460        18.37508         2.02459
   C        2.50882        17.37859         2.14230
   C        2.94981        16.12584         1.68085
   C        2.09044        14.90482         1.76207
   C        0.86604        15.12836         2.64515
   C        0.19235        16.45563         2.29331
   O       -1.07169        16.59349         2.89576
   C        1.13147        17.60241         2.68001
   C        3.37894        19.73452         2.44711
   O        2.30138        20.11657         3.18167
   C        2.46587        21.41179         3.49662
   C        3.62853        21.89364         2.99219
   C        4.24949        20.81592         2.29704
   C        5.49175        20.85480         1.58242
   C        6.39830        21.84413         1.66852
   C        7.63372        21.83864         0.93356
   C        8.54912        22.80219         1.02378
   H       11.48832         4.51816        -5.84840
   H       14.63576         6.75815        -7.16107
   H       13.09977         8.50854        -5.75028
   H       10.78326         8.24932        -4.41980
   H        9.62682         5.41643        -4.44901
   H        8.70524         8.08661        -3.20137
   H        7.49809         5.27305        -3.19791
   H        5.39106         5.10653        -1.99168
   H        4.66706         6.58630        -1.17847
   H        7.72833        11.24744        -1.49071
   H        4.80613        11.01696        -0.58158
   H        2.67224        14.07034         2.16232
   H        1.77216        14.62184         0.75350
   H        1.16611        15.14894         3.69658
   H        0.15862        14.30921         2.50898
   H       -0.00852        16.48862         1.21693
   H       -0.96399        16.56217         3.85382
   H        1.17392        17.67994         3.77272
   H        0.73234        18.54781         2.30936
   H        1.69045        21.87175         4.07711
   H        3.99925        22.89283         3.08462
   H        5.70183        20.01786         0.93130
   H        6.22888        22.68766         2.32383
   H        7.80254        20.98979         0.28364
   H        8.40782        23.65707         1.66509
   H        9.46727        22.76860         0.46420
*
