# ORCA input file
# SCF done       -136.373895661557          0.000613028220
! CAM-B3LYP def2-SVP def2/J RIJCOSX Grid4 TightSCF
%maxcore 5000
%tddft
    Mode sTDDFT
    Ethresh 5.0
    maxcore 5000
end

%pal
  nprocs 6
  end
* xyz 0 1
   C       -0.75501         3.76593       -12.00530
   O       -1.89402         3.06125       -11.99667
   C       -2.54473         3.38030       -10.86222
   C       -1.84130         4.28410       -10.13636
   C       -0.64936         4.55321       -10.88092
   C        0.43399         5.43440       -10.56508
   C        0.51212         6.20737        -9.45600
   C        1.60175         7.06536        -9.17988
   C        1.69060         7.84832        -8.06380
   C        2.77429         8.69159        -7.78991
   C        2.89551         9.48196        -6.66983
   C        3.97605        10.33154        -6.34593
   C        3.83756        10.98772        -5.15680
   C        2.63830        10.69588        -4.47850
   S        1.68238         9.55922        -5.39974
   C        2.21681        11.19301        -3.25279
   C        2.91309        12.07581        -2.40643
   C        2.24432        12.37304        -1.25175
   C        0.98930        11.74480        -1.13735
   S        0.67720        10.75436        -2.54501
   C        0.09801        11.86440        -0.08780
   C       -1.14284        11.24465        -0.03209
   O       -1.59959        10.45231        -1.03226
   C       -2.84282        10.01621        -0.69825
   C       -3.19650        10.53679         0.55735
   C       -2.13030        11.31026         0.98401
   O       -1.95229        12.02554         2.11061
   C       -3.02031        12.00453         3.03355
   C       -3.53508         9.18710        -1.58202
   C       -4.80949         8.71327        -1.35882
   C       -5.50502         7.89636        -2.23972
   C       -6.79389         7.44130        -2.02028
   C       -7.56623         6.61716        -2.85891
   C       -8.81764         6.33850        -2.37954
   C       -9.09409         6.93235        -1.13484
   S       -7.71524         7.85479        -0.58496
   C      -10.26042         6.85272        -0.38862
   C      -11.44490         6.15790        -0.69481
   C      -12.41993         6.28201         0.25181
   C      -12.06192         7.08441         1.36249
   S      -10.42495         7.67418         1.14973
   C      -12.87870         7.35244         2.43504
   C      -12.59705         8.13908         3.56506
   S      -13.83444         8.30386         4.78715
   C      -12.81463         9.33009         5.75832
   C      -13.22092         9.90076         7.03733
   O      -12.49564        10.60873         7.68960
   O      -14.46454         9.60055         7.47148
   C      -11.59266         9.51664         5.14623
   C      -11.46561         8.85818         3.92950
   H       -0.09894         3.63883       -12.84384
   H       -3.48848         2.90176       -10.68915
   H       -2.12456         4.70839        -9.19579
   H        1.23863         5.46385       -11.28845
   H       -0.28886         6.18243        -8.72999
   H        2.40780         7.09363        -9.90239
   H        0.88655         7.82420        -7.33847
   H        3.58695         8.72757        -8.50439
   H        4.82532        10.43073        -6.99896
   H        4.56543        11.67086        -4.75744
   H        3.88240        12.46674        -2.65822
   H        2.61723        13.02579        -0.48240
   H        0.36346        12.48431         0.75468
   H       -4.12081        10.35314         1.06452
   H       -2.70819        12.62879         3.86822
   H       -3.21525        10.98811         3.38822
   H       -3.93288        12.41364         2.59015
   H       -3.01839         8.92404        -2.49427
   H       -5.31507         8.99325        -0.44434
   H       -5.02507         7.59187        -3.16043
   H       -7.18172         6.25070        -3.79461
   H       -9.53788         5.72612        -2.89161
   H      -11.55218         5.58616        -1.59916
   H      -13.39013         5.82185         0.18769
   H      -13.86216         6.90095         2.40356
   H      -14.94127         9.02570         6.85793
   H      -10.82777        10.12315         5.59664
   H      -10.58020         8.89832         3.32338
*
