# ORCA input file
# SCF done       -177.357602892556          0.000524937085
! CAM-B3LYP def2-SVP def2/J RIJCOSX Grid4 TightSCF
%maxcore 5000
%tddft
    Mode sTDDFT
    Ethresh 5.0
    maxcore 5000
end

%pal
  nprocs 6
  end
* xyz 0 1
   C       10.43235         5.70843         3.02282
   C        9.70545         4.73218         2.41233
   C        8.29792         4.90384         2.60654
   C        7.98033         5.99424         3.34397
   S        9.40763         6.84626         3.81324
   C        7.58624         3.76706         2.00623
   O        6.40901         3.50595         2.09869
   C        8.65820         2.92998         1.38695
   C        9.93903         3.49064         1.68078
   C       11.21535         3.07350         1.31566
   N       12.29410         4.02860         1.28371
   O       12.05010         5.12275         0.81448
   O       13.36351         3.69122         1.73947
   N       11.60429         1.76759         0.97941
   O       12.59641         1.61022         0.29001
   O       10.91899         0.83361         1.39244
   C        8.38860         1.77248         0.66515
   C        7.20677         1.49998        -0.02592
   C        6.89395         0.21994        -0.52212
   O        5.73393        -0.02322        -1.19089
   C        4.85994         1.01900        -1.30773
   C        5.19170         2.32087        -0.83784
   C        4.19654         3.21962        -1.04021
   S        2.84182         2.48319        -1.81190
   C        3.62141         0.95027        -1.85973
   O        6.39577         2.58290        -0.27603
   C        7.73252        -0.90831        -0.36228
   C        7.39748        -2.14205        -0.84363
   C        8.16061        -3.34087        -0.77962
   C        9.46763        -3.45061        -0.22551
   O       10.03715        -2.33120         0.25142
   C       11.33722        -2.36611         0.80432
   C       10.08007        -4.69141        -0.20754
   C        9.49282        -5.85713        -0.71576
   C        8.19784        -5.74011        -1.29694
   C        7.57969        -4.50948        -1.30747
   O        7.63428        -6.86282        -1.80898
   C        6.35303        -6.80046        -2.40773
   C        6.01633        -8.19856        -2.90374
   C       10.24135        -7.07296        -0.59260
   C        9.89630        -8.31177        -1.02222
   C       10.67753        -9.47877        -0.82664
   S       10.06430       -11.00308        -1.45788
   C       11.41936       -11.83970        -0.84336
   C       12.30419       -10.98172        -0.18541
   C       11.89268        -9.65599        -0.17536
   C       13.42059       -11.80907         0.31351
   O       14.39895       -11.47368         0.93304
   C       13.07273       -13.21809        -0.12419
   C       11.88443       -13.18501        -0.80838
   C       13.92818       -14.29538         0.20707
   C       13.71459       -15.59500        -0.12088
   C       14.56942       -16.67392         0.23078
   C       15.73057       -16.67525         0.95923
   C       16.30858       -17.95725         1.10960
   C       15.54620       -18.96802         0.46294
   S       14.13878       -18.29393        -0.30613
   C       15.91581       -20.29496         0.47222
   C       17.08400       -20.64145         1.14638
   C       17.84576       -19.63398         1.79437
   C       17.47838       -18.30724         1.78644
   S       19.25582       -20.31377         2.56478
   C       18.81675       -21.89813         2.02022
   C       17.67658       -21.92875         1.29992
   H       11.49106         5.86337         3.07406
   H        7.01543         6.35297         3.64087
   H        9.16158         1.01978         0.62813
   H        4.18404         4.25673        -0.78018
   H        3.13301         0.09940        -2.28651
   H        8.66424        -0.77582         0.15366
   H        6.43384        -2.23991        -1.32898
   H       11.53167        -1.34152         1.11811
   H       12.07858        -2.67146         0.06127
   H       11.38463        -3.02871         1.67257
   H       11.06616        -4.78309         0.21980
   H        6.59345        -4.41087        -1.73246
   H        6.36292        -6.09257        -3.24744
   H        5.60799        -6.46948        -1.67153
   H        6.75086        -8.52169        -3.63663
   H        5.03242        -8.19928        -3.36327
   H        6.02102        -8.89954        -2.07329
   H       11.18984        -6.96047        -0.08291
   H        8.96563        -8.45686        -1.54567
   H       12.44129        -8.85541         0.28495
   H       11.36980       -14.01925        -1.24811
   H       14.80786       -14.01663         0.77157
   H       12.83466       -15.85988        -0.69117
   H       16.16576       -15.78806         1.38192
   H       15.32307       -21.04605        -0.02558
   H       18.07046       -17.55629         2.28485
   H       19.45438       -22.72061         2.28040
   H       17.25381       -22.82496         0.88253
*
