# ORCA input file
# SCF done       -168.001219641828          0.000862819898
! CAM-B3LYP def2-SVP def2/J RIJCOSX Grid4 TightSCF
%maxcore 5000
%tddft
    Mode sTDDFT
    Ethresh 5.0
    maxcore 5000
end

%pal
  nprocs 6
  end
* xyz 0 1
   C       -4.23488         2.03370         1.42162
   C       -4.63699         2.61816         0.24145
   C       -3.75474         3.01978        -0.78155
   N       -3.09871         3.38049        -1.65336
   C       -5.95484         2.93489        -0.13784
   N       -6.98127         3.24088        -0.55805
   C       -2.84894         1.71903         1.76090
   C       -2.81378         1.19131         3.07308
   C       -1.64981         0.80165         3.68630
   C       -0.45815         0.92223         2.96163
   C       -0.50285         1.44287         1.64794
   C       -1.68135         1.84835         1.03239
   S        1.07982         1.50491         0.93096
   C        1.76892         0.83852         2.38728
   C        0.86363         0.58287         3.36111
  Br        3.61912         0.54322         2.48486
   C       -4.18614         1.16901         3.62859
   O       -4.47544         0.94946         4.78506
   C       -5.06763         1.60970         2.52211
   C       -6.44251         1.69884         2.54839
   C       -7.31211         1.07948         3.46744
   C       -8.65947         1.43389         3.59315
   O       -9.48576         0.83154         4.50278
   C       -8.91147        -0.10138         5.31764
   C       -7.54712        -0.47908         5.16901
   C       -7.15989        -1.41539         6.07018
   S       -8.46316        -1.85107         7.11164
   C       -9.53788        -0.75777         6.32637
   O       -6.76498         0.05501         4.19823
   C       -9.28671         2.43909         2.82382
   C      -10.60179         2.78821         2.96404
   C      -11.19555         3.75233         2.13427
   S      -12.89040         4.21342         2.22941
   C      -12.79692         5.33915         0.86795
   C      -11.49005         5.32752         0.40820
   C      -10.62841         4.47646         1.10100
   O       -9.37539         4.56479         0.59344
   C       -9.47321         5.45738        -0.50161
   O      -10.79341         5.97839        -0.56550
   C      -13.94839         6.03425         0.47832
   C      -14.11697         6.85514        -0.61178
   C      -15.31450         7.55112        -0.91762
   C      -15.25886         8.28748        -2.06115
   C      -14.01599         8.20287        -2.72729
   S      -12.91335         7.16955        -1.84421
   C      -13.64572         8.80497        -3.91543
   C      -14.41012         9.66568        -4.73560
   C      -13.75875        10.08108        -5.85538
   C      -12.44235         9.56638        -5.98911
   S      -12.06214         8.54186        -4.61589
   C      -11.58876         9.80928        -7.03193
   C      -10.29374         9.29319        -7.21257
   S       -9.46767         8.20520        -6.10723
   C       -8.05497         8.09084        -7.07635
   C       -8.18302         8.85150        -8.21557
   C       -9.44105         9.52262        -8.28062
   O       -9.53812        10.25900        -9.40603
   C       -8.35963        10.06628       -10.05997
   N       -8.17766        10.73064       -11.29685
   O       -7.11581        10.54211       -11.85972
   O       -9.07819        11.43138       -11.70439
   C       -7.49713         9.23128        -9.40213
   H       -1.65666         0.41093         4.69187
   H       -1.65879         2.24189         0.03017
   H        1.11556         0.17241         4.32196
   H       -6.91167         2.26575         1.76002
   H       -6.19437        -1.86187         6.17854
   H      -10.55470        -0.66418         6.64559
   H       -8.70765         2.94638         2.07179
   H      -11.21975         2.31797         3.71404
   H       -8.76081         6.28272        -0.36661
   H       -9.23803         4.91759        -1.43122
   H      -14.81285         5.89171         1.11355
   H      -16.17614         7.48452        -0.27719
   H      -16.07244         8.87883        -2.44053
   H      -15.41359         9.95303        -4.47770
   H      -14.17791        10.73675        -6.59780
   H      -11.93611        10.46207        -7.82227
   H       -7.23406         7.48310        -6.75718
   H       -6.52159         8.94344        -9.73521
*
