# ORCA input file
# SCF done       -194.600016175567          0.000553002295
! CAM-B3LYP def2-SVP def2/J RIJCOSX Grid4 TightSCF
%maxcore 5000
%tddft
    Mode sTDDFT
    Ethresh 5.0
    maxcore 5000
end

%pal
  nprocs 6
  end
* xyz 0 1
   C      -10.20139         3.69005        -3.66763
   C      -10.70665         2.48837        -3.21121
   C      -12.07711         2.18529        -3.15732
   N      -13.18683         1.90184        -3.05345
   C       -9.92812         1.46629        -2.64509
   N       -9.36155         0.60067        -2.14264
   C      -11.00857         4.81290        -4.14089
   C      -10.15569         5.92834        -4.31774
   C      -10.61113         7.14728        -4.75097
   C      -11.98087         7.27450        -5.01661
   C      -12.82454         6.15676        -4.83209
   C      -12.35934         4.91864        -4.39772
   S      -14.47689         6.53255        -5.21641
   C      -14.01642         8.16628        -5.61636
   C      -12.69454         8.41858        -5.46867
  Br      -15.32401         9.38402        -6.18910
   C       -8.77724         5.54731        -3.94348
   O       -7.79882         6.26919        -3.97228
   C       -8.84201         4.11970        -3.58900
   C       -7.73545         3.32541        -3.32158
   C       -6.45229         3.74525        -2.94147
   C       -6.12866         4.90194        -2.21000
   O       -4.85204         5.38291        -2.15173
   C       -3.88872         4.60168        -2.71640
   C       -4.19102         3.32107        -3.26362
   C       -3.08919         2.66986        -3.71497
   S       -1.66716         3.61515        -3.48081
   C       -2.56555         4.89920        -2.76736
   O       -5.46658         2.85834        -3.34160
   C       -7.04951         5.64831        -1.45733
   C       -8.24901         5.14534        -0.99525
   C       -9.32472         5.89426        -0.55986
   C      -10.56088         5.32334        -0.26497
   C      -11.78277         5.98514        -0.06211
   C      -12.85518         5.14409         0.09918
   C      -12.51825         3.78328         0.04800
   S      -10.80271         3.59312        -0.20831
   C      -13.35642         2.67713         0.17869
   C      -14.74532         2.68484         0.40650
   C      -15.28476         1.43377         0.51319
   C      -14.34149         0.39616         0.35950
   S      -12.75125         1.04687         0.08141
   C      -14.62900        -0.95730         0.41162
   C      -13.71024        -1.97030         0.13335
   C      -14.03534        -3.34156         0.12769
   O      -13.16905        -4.28548        -0.34448
   C      -11.95622        -3.83275        -0.77260
   C      -11.59559        -2.45831        -0.69468
   C      -10.34451        -2.20734        -1.15468
   S       -9.58944        -3.65596        -1.69379
   C      -10.96773        -4.60597        -1.29238
   O      -12.46364        -1.52255        -0.20635
   C      -15.27171        -3.83054         0.57928
   C      -15.69314        -5.12979         0.42467
   C      -16.91593        -5.64576         0.87682
   C      -18.04165        -5.01480         1.36048
   C      -18.50803        -3.65497         1.33578
   C      -18.23560        -2.70149         0.37809
   C      -18.61097        -1.35121         0.47126
   N      -18.79790        -0.21867         0.53982
   C      -17.53677        -2.98252        -0.81163
   N      -17.00575        -3.16922        -1.81247
   C      -19.52019        -3.51495         2.38045
   C      -19.83262        -4.80358         2.88021
   C      -18.97153        -5.80168         2.20989
   O      -18.98665        -7.00384         2.35472
   C      -20.79072        -5.00929         3.84117
   C      -21.46364        -3.88853         4.34238
   C      -21.13662        -2.60583         3.84435
   C      -20.17476        -2.39857         2.86197
   S      -22.08285        -1.36380         4.60719
   C      -22.89728        -2.56920         5.56874
   C      -22.48213        -3.83623         5.33335
  Br      -24.21487        -2.03931         6.79443
   H       -9.93684         7.97936        -4.87917
   H      -13.04173         4.09320        -4.28251
   H      -12.23897         9.37036        -5.67269
   H       -7.80237         2.26647        -3.54436
   H       -3.03439         1.70070        -4.16434
   H       -2.07619         5.78757        -2.42720
   H       -6.75787         6.66087        -1.21884
   H       -8.39548         4.07263        -1.04608
   H       -9.25572         6.97309        -0.54387
   H      -11.84978         7.05861        -0.05939
   H      -13.86563         5.47924         0.24654
   H      -15.31204         3.59450         0.48486
   H      -16.32820         1.22783         0.67642
   H      -15.65013        -1.21833         0.62780
   H       -9.84432        -1.26198        -1.23290
   H      -10.97727        -5.66248        -1.45971
   H      -15.89175        -3.14056         1.12477
   H      -15.01202        -5.82732        -0.04154
   H      -16.97894        -6.72848         0.93609
   H      -21.01767        -6.00239         4.19566
   H      -19.95976        -1.40221         2.51206
   H      -22.87602        -4.70010         5.83695
*
