# ORCA input file
# SCF done       -157.075865703849          0.006467813692
! CAM-B3LYP def2-SVP def2/J RIJCOSX Grid4 TightSCF
%maxcore 5000
%tddft
    Mode sTDDFT
    Ethresh 5.0
    maxcore 5000
end

%pal
  nprocs 6
  end
* xyz 0 1
   C        7.75942        -0.81828        -6.49906
   C        6.56724        -1.43808        -6.46639
   C        5.45260        -1.24720        -7.34887
   C        4.38800        -2.03496        -7.07588
   C        4.57808        -2.90613        -5.96854
   S        6.15920        -2.67500        -5.26552
   C        3.69660        -3.85338        -5.48339
   C        2.41728        -4.19522        -5.97426
   C        1.82897        -5.21827        -5.29389
   C        2.60495        -5.73050        -4.22732
   S        4.11693        -4.85898        -4.11239
   C        2.21497        -6.77152        -3.40402
   C        2.89981        -7.32896        -2.33198
   S        2.09111        -8.56515        -1.35886
   C        3.44384        -8.78589        -0.25001
   C        4.49270        -7.92251        -0.66262
   C        4.17299        -7.12813        -1.78504
   O        5.19653        -6.32132        -2.10065
   C        6.16893        -6.57510        -1.18013
   N        7.35935        -5.84026        -1.25098
   O        8.21003        -6.09842        -0.41067
   O        7.46856        -4.99911        -2.12511
   C        5.79018        -7.54789        -0.27754
   C        3.44678        -9.64327         0.81867
   C        2.37224       -10.40670         1.28854
   C        2.40387       -11.31913         2.34565
   C        1.18406       -11.90251         2.61855
   C        0.15723       -11.44898         1.79319
   S        0.75941       -10.28915         0.63746
   C       -1.20449       -11.79102         1.81293
   C       -1.84536       -12.79474         2.54106
   C       -3.20116       -12.85866         2.30878
   C       -3.66938       -11.89862         1.40349
   S       -2.34604       -10.90955         0.83828
   C       -4.98280       -11.73548         0.97056
   C       -5.44596       -10.76726         0.10639
   S       -4.46755        -9.46004        -0.57132
   C       -5.78556        -8.77526        -1.52524
   C       -6.94995        -9.55566        -1.29904
   C       -6.74612       -10.62265        -0.40534
   O       -7.87061       -11.32949        -0.22772
   C       -8.80693       -10.72188        -1.00620
   N      -10.10381       -11.26539        -1.03443
   O      -10.91369       -10.70206        -1.75200
   O      -10.32848       -12.24811        -0.35706
   C       -8.30204        -9.63213        -1.68351
   C       -5.65563        -7.68443        -2.34605
   C       -4.51774        -6.89613        -2.52463
   C       -4.39566        -5.82498        -3.41988
   C       -3.17388        -5.19911        -3.38371
   C       -2.29206        -5.74809        -2.44207
   S       -3.03656        -7.10379        -1.62621
   C       -1.00143        -5.33072        -2.12743
   C       -0.25684        -4.30449        -2.74636
   C        0.99314        -4.13594        -2.23439
   C        1.30268        -5.01466        -1.15535
   S       -0.08202        -6.07037        -0.84436
   C        2.46338        -5.12673        -0.48231
   H        7.97622        -0.07465        -7.24722
   H        8.53097        -1.04341        -5.78522
   H        5.50080        -0.52924        -8.14877
   H        3.46935        -2.02580        -7.63241
   H        1.97253        -3.69021        -6.81265
   H        0.86063        -5.62031        -5.52049
   H        1.23624        -7.19126        -3.60102
   H        6.38819        -7.91125         0.53203
   H        4.37438        -9.72810         1.36985
   H        3.30889       -11.53457         2.88558
   H        1.02208       -12.61986         3.40235
   H       -1.31561       -13.45739         3.20083
   H       -3.85959       -13.57275         2.76896
   H       -5.71460       -12.44078         1.33751
   H       -8.85434        -9.00372        -2.35094
   H       -6.53019        -7.39990        -2.91680
   H       -5.20157        -5.53710        -4.07201
   H       -2.90996        -4.35833        -4.00163
   H       -0.65511        -3.72858        -3.56382
   H        1.70099        -3.39970        -2.57090
   H        3.28955        -4.47534        -0.70659
   H        2.57648        -5.81735         0.33538
*
