# ORCA input file
# SCF done       -204.238785893105          0.000456604252
! CAM-B3LYP def2-SVP def2/J RIJCOSX Grid4 TightSCF
%maxcore 5000
%tddft
    Mode sTDDFT
    Ethresh 5.0
    maxcore 5000
end

%pal
  nprocs 6
  end
* xyz 0 1
   C       -0.89620        -0.54608         4.21527
   S       -0.63010         0.50018         2.86827
   C       -2.31508         0.58392         2.58599
   C       -3.03421        -0.17116         3.50615
   C       -2.21688        -0.81964         4.44141
   C       -4.46381        -0.03274         3.16905
   O       -5.42686        -0.51792         3.70490
   C       -4.47597         0.87965         1.95373
   C       -3.18495         1.21959         1.64670
   C       -5.69204         1.22324         1.32206
   C       -5.80035         1.98269         0.19710
   C       -7.02825         2.25540        -0.44229
   O       -8.19452         1.82029         0.05120
   C       -9.18744         2.18012        -0.80747
   C       -8.65648         2.87037        -1.87460
   C       -7.26047         2.94201        -1.65579
   C       -6.25198         3.56830        -2.46333
   O       -5.06055         3.59876        -2.25134
   C       -6.81042         4.27644        -3.73194
   F       -7.70114         5.23467        -3.41720
   F       -5.84878         4.85297        -4.44645
   F       -7.44973         3.41661        -4.54577
   C      -10.54288         1.83589        -0.54391
   C      -10.97948         1.32244         0.62712
   C      -12.34314         0.96363         0.87381
   C      -12.79384         0.64717         2.15448
   F      -11.92362         0.69741         3.17769
   C      -14.11390         0.29024         2.44845
   F      -14.41588         0.02667         3.72878
   C      -15.11293         0.17611         1.48208
   C      -14.68012         0.47887         0.16625
   C      -13.34174         0.87800        -0.12800
   N      -13.27625         1.09052        -1.45080
   N      -14.47805         0.83531        -1.88262
   C      -14.83962         0.97566        -3.26412
   C      -15.30863         2.39929        -3.54886
   N      -15.35325         0.47565        -0.99033
   C      -16.44610        -0.21439         1.81194
   C      -17.37742        -0.52054         0.87315
   C      -18.70522        -0.90056         1.17256
   O      -19.20820        -0.81625         2.40665
   C      -20.50161        -1.24013         2.37672
   C      -20.83863        -1.62078         1.09252
   C      -19.69503        -1.40018         0.29388
   C      -19.52428        -1.61864        -1.11809
   O      -18.53503        -1.40017        -1.77763
   C      -20.78784        -2.19543        -1.82300
   F      -21.84461        -1.37188        -1.70268
   F      -20.58443        -2.38820        -3.12295
   F      -21.15944        -3.37470        -1.29658
   C      -21.30275        -1.19621         3.54492
   C      -20.87786        -0.69473         4.73519
   C      -21.73014        -0.63620         5.85931
   C      -21.39146        -0.09285         7.06737
   C      -22.26058         0.00984         8.23135
   C      -23.32351        -0.81205         8.48525
   N      -24.27193        -0.64042         9.53825
   O      -24.42853         0.47812         9.98550
   O      -24.85876        -1.63114         9.91581
   N      -23.54749        -2.03512         7.72046
   O      -22.61868        -2.80316         7.64196
   O      -24.63772        -2.17981         7.22571
   C      -21.69075         1.03118         9.08935
   C      -21.98281         1.68585        10.25077
   S      -20.69670         2.72393        10.71942
   C      -19.74359         2.29273         9.34839
   C      -20.40055         1.39511         8.57322
   C      -20.14212         0.68719         7.31312
   O      -19.15912         0.75805         6.61390
   H       -0.04840        -0.90163         4.76694
   H       -2.57169        -1.45166         5.23436
   H       -2.85891         1.85278         0.84206
   H       -6.58570         0.81713         1.77956
   H       -4.92743         2.39440        -0.28484
   H       -9.21143         3.27206        -2.69666
   H      -11.24101         2.01684        -1.34698
   H      -10.28796         1.18436         1.44679
   H      -15.64306         0.26378        -3.46153
   H      -13.96007         0.73416        -3.86333
   H      -16.18074         2.63471        -2.94420
   H      -15.57533         2.49311        -4.59718
   H      -14.51833         3.11119        -3.32317
   H      -16.68820        -0.28658         2.86409
   H      -17.11635        -0.49849        -0.17434
   H      -21.79155        -1.99817         0.78327
   H      -22.30867        -1.57807         3.43586
   H      -19.86832        -0.32492         4.83352
   H      -22.73638        -1.00774         5.70493
   H      -22.87657         1.65210        10.84097
   H      -18.77166         2.72068         9.20544
*
