# ORCA input file
# SCF done       -176.071623463179          0.000605375271
! CAM-B3LYP def2-SVP def2/J RIJCOSX Grid4 TightSCF
%maxcore 5000
%tddft
    Mode sTDDFT
    Ethresh 5.0
    maxcore 5000
end

%pal
  nprocs 6
  end
* xyz 0 1
   C       -2.11798        -0.30527         0.89681
   C       -0.96065         0.34134         1.26331
   C        0.16249        -0.53322         1.31875
   S        1.60569         0.29977         1.79110
   C        0.72747         1.80956         1.92114
   C        1.45811         3.01524         2.33583
   O        0.97457         4.10914         2.45731
   O        2.73882         2.70339         2.57169
   C        3.60157         3.76844         2.97600
   C        4.11635         4.55142         1.77765
   C       -0.59367         1.67403         1.61356
   F       -1.47698         2.66462         1.63308
   C       -0.13575        -1.84806         0.99759
   S       -1.84374        -1.96593         0.62461
   C        0.69321        -2.98903         0.94559
   C        2.03114        -2.96826         1.18970
   C        2.82253        -4.13944         1.13718
   N        2.29955        -5.33626         0.88617
   C        3.32521        -6.20107         0.92601
   C        4.59876        -5.51748         1.22366
   C        5.70385        -6.48904         1.25487
   O        6.88259        -6.29089         1.46865
   C        5.02581        -7.76280         0.96093
   C        3.57868        -7.54326         0.76896
   N        2.94975        -8.71084         0.49164
   C        3.89660        -9.61888         0.49838
   C        5.21612        -9.09634         0.78226
   C        4.29116        -4.18840         1.35618
   C        5.11889        -3.05446         1.61524
   C        6.44804        -3.15022         1.81106
   C        7.35077        -2.03551         2.04025
   C        6.99279        -0.75235         2.22410
   C        8.72142        -2.39199         2.06766
   C        9.87789        -2.74630         2.07971
   C       11.21925        -3.13577         2.10854
   C       12.18134        -2.46377         1.44785
   C       13.58616        -2.80354         1.48988
   C       14.00651        -4.18389         1.47151
   C       13.26601        -5.30626         1.32220
   S       14.29142        -6.80419         1.18392
   F       15.36468        -8.33664         1.34280
   C       15.70404        -5.82179         1.54116
   C       15.43010        -4.49987         1.59480
   C       16.36828        -3.43418         1.74197
   C       15.94559        -2.15531         1.66082
   C       14.56060        -1.81517         1.50454
   C       14.16121        -0.43018         1.48723
   C       14.79544         0.59347         0.85998
   C       14.42127         1.99982         0.92369
   C       13.30232         2.53000         1.51089
   C       13.00060         3.90868         1.53476
   N       12.69794         5.01447         1.59081
   C       12.26217         1.79717         2.12062
   N       11.35830         1.28164         2.60770
   C       15.42751         2.75723         0.19025
   C       16.32580         1.85014        -0.42365
   C       15.94428         0.46695        -0.07747
   O       16.43479        -0.54760        -0.52044
   C       17.37203         2.26080        -1.21338
   C       17.55112         3.63566        -1.39585
   C       16.65587         4.53653        -0.76959
   C       15.59223         4.12051         0.02055
   S       17.06124         6.18878        -1.12371
   C       18.40700         5.65466        -2.09524
   C       18.54841         4.30872        -2.15243
  Br       19.49765         6.92340        -2.94197
   H       -3.09671         0.11547         0.77942
   H        4.41815         3.28003         3.51113
   H        3.05072         4.42905         3.65327
   H        4.62058         3.88656         1.08027
   H        4.81720         5.30914         2.11501
   H        3.28926         5.04009         1.26826
   H        0.23548        -3.93540         0.69449
   H        2.51837        -2.03574         1.43276
   H        3.66018       -10.65052         0.30295
   H        6.11861        -9.67293         0.83141
   H        4.63042        -2.09024         1.63412
   H        6.91631        -4.12536         1.77753
   H        5.96351        -0.44019         2.23452
   H        7.73609         0.00836         2.38920
   H       11.45322        -3.98702         2.73428
   H       11.89480        -1.58289         0.88981
   H       12.21641        -5.35664         1.10272
   H       13.90333        -7.19977         2.41419
   H       16.65431        -6.31389         1.57963
   H       17.40670        -3.67493         1.90512
   H       16.65024        -1.34827         1.77990
   H       13.25416        -0.20381         2.03222
   H       18.03264         1.54279        -1.67353
   H       14.93863         4.84659         0.47403
   H       19.32302         3.80969        -2.70548
*
