# ORCA input file
# SCF done       -194.816680416317          0.000625419814
! CAM-B3LYP def2-SVP def2/J RIJCOSX Grid4 TightSCF
%maxcore 5000
%tddft
    Mode sTDDFT
    Ethresh 5.0
    maxcore 5000
end

%pal
  nprocs 6
  end
* xyz 0 1
   C       -2.17888         2.02605         0.91534
   C       -1.92112         0.72700         1.26731
   C       -0.77779         0.00817         0.85798
   N        0.13164        -0.62933         0.56867
   C       -2.76311        -0.08813         2.05349
   N       -3.39896        -0.81813         2.67066
   C       -1.35256         2.84991         0.04120
   C       -2.01752         4.08080        -0.19307
   C       -1.48766         5.06955        -0.98705
   C       -0.23151         4.84436        -1.55950
   C        0.43336         3.61953        -1.30415
   C       -0.11178         2.61155        -0.51834
   S        1.98541         3.56099        -2.07214
   C        1.72276         5.15028        -2.72870
   C        0.53618         5.70707        -2.38841
  Br        3.03708         5.91568        -3.82352
   C       -3.27963         4.09590         0.55950
   O       -4.09319         5.00039         0.60566
   C       -3.33289         2.82063         1.29446
   C       -4.25757         2.50785         2.25294
   C       -5.38167         3.24266         2.66348
   S       -6.02824         4.73111         1.98702
   C       -7.40891         4.77692         3.08754
   C       -7.30985         3.69439         3.94641
   C       -6.21948         2.86125         3.70628
   O       -6.25577         1.84572         4.60656
   C       -7.34826         2.06211         5.37893
   S       -7.80211         1.11577         6.60164
   O       -8.00968         3.17926         4.99588
   C       -8.37898         5.79161         3.04327
   C       -8.36063         6.75113         2.06588
   C       -9.25251         7.81553         1.93651
   C       -9.17162         8.71224         0.88935
   C       -9.95592         9.86309         0.65376
   C       -9.60988        10.55253        -0.47423
   C       -8.54616         9.96516        -1.18931
   S       -7.98549         8.52455        -0.38694
   C       -7.94948        10.37602        -2.37410
   C       -8.19102        11.52976        -3.14386
   C       -7.39645        11.62080        -4.25068
   C       -6.50512        10.53345        -4.41527
   S       -6.69944         9.39856        -3.10262
   C       -5.60466        10.38964        -5.45078
   C       -4.75753         9.30781        -5.69943
   S       -3.62537         9.38668        -7.05331
   C       -2.98626         7.76794        -6.80922
   C       -3.65139         7.23305        -5.72157
   C       -4.59141         8.06089        -5.10434
   O       -5.09089         7.37978        -4.03255
   C       -4.45350         6.18968        -3.99599
   S       -4.69551         5.05870        -2.87192
   O       -3.57769         6.06922        -5.02284
   C       -1.92598         7.18719        -7.52207
   C       -1.09843         7.85819        -8.37221
   C        0.01820         7.31615        -9.03906
   C        0.71293         6.14895        -8.85940
   C        0.74434         5.12520        -7.84245
   C        0.45566         5.25184        -6.50408
   C        0.48036         4.18617        -5.58542
   N        0.42743         3.36459        -4.78389
   C        0.13439         6.45672        -5.85263
   N       -0.10754         7.39769        -5.23931
   C        1.36765         3.94153        -8.43172
   C        1.91022         4.29161        -9.69323
   C        1.58669         5.70140        -9.98096
   O        1.91629         6.35619       -10.94342
   C        2.60589         3.40070       -10.47291
   C        2.76590         2.09731        -9.98984
   C        2.20922         1.75291        -8.73496
   C        1.51195         2.65720        -7.94290
   S        2.51668         0.09118        -8.33328
   C        3.38043        -0.11546        -9.83362
   C        3.43550         1.00115       -10.59843
  Br        4.12578        -1.78476       -10.24982
   H       -2.02426         5.99004        -1.15407
   H        0.43265         1.69595        -0.35858
   H        0.21264         6.67719        -2.72064
   H       -4.13124         1.58428         2.80620
   H       -9.15005         5.78318         3.80189
   H       -7.57535         6.67666         1.32226
   H      -10.02898         7.95803         2.67573
   H      -10.74617        10.15292         1.32355
   H      -10.09459        11.45242        -0.80777
   H       -8.92748        12.26158        -2.86490
   H       -7.42782        12.43058        -4.95764
   H       -5.54418        11.20273        -6.16128
   H       -1.79449         6.12860        -7.34477
   H       -1.32974         8.89515        -8.58106
   H        0.37796         7.89285        -9.88711
   H        3.01598         3.69933       -11.42477
   H        1.10206         2.34315        -6.99751
   H        3.92768         1.05123       -11.55243
*
