# ORCA input file
# SCF done       -211.361657070437          0.000250691500
! CAM-B3LYP def2-SVP def2/J RIJCOSX Grid4 TightSCF
%maxcore 5000
%tddft
    Mode sTDDFT
    Ethresh 5.0
    maxcore 5000
end

%pal
  nprocs 6
  end
* xyz 0 1
   C       -0.21968       -10.41824        -7.57235
   C       -0.05312       -10.10176        -8.89205
   F        0.58861       -10.94398        -9.70983
   C       -0.55278        -8.88873        -9.40775
   F       -0.37494        -8.60449       -10.70355
   C       -1.21225        -8.00844        -8.59596
   C       -1.39869        -8.30611        -7.23216
   C       -0.89445        -9.53232        -6.70939
   C       -1.07092        -9.85319        -5.34287
   C       -1.73019        -8.97565        -4.52470
   C       -2.22999        -7.75101        -5.05672
   C       -2.07544        -7.41426        -6.37133
   C       -2.88935        -7.00313        -3.98289
   O       -3.43527        -5.90474        -4.06148
   C       -2.77472        -7.82708        -2.77518
   C       -2.05762        -9.03949        -3.10039
   C       -1.73589       -10.06233        -2.24840
   C       -2.07089       -10.07921        -0.87863
   N       -2.32642       -10.12518         0.23932
   C       -1.02954       -11.22098        -2.63268
   N       -0.45824       -12.18232        -2.89015
   C       -3.31023        -7.41627        -1.57759
   N       -3.94401        -6.24034        -1.51086
   C       -4.54759        -5.67235        -0.43957
   S       -4.59502        -6.44246         1.11249
   C       -5.50144        -5.09607         1.72308
   N       -5.87641        -5.13229         3.07780
   O       -6.50786        -4.19184         3.51313
   O       -5.53144        -6.11454         3.70770
   C       -5.75094        -4.12464         0.79423
   C       -5.20536        -4.43285        -0.46932
   C       -5.28080        -3.61630        -1.64593
   C       -6.00227        -2.48423        -1.77588
   C       -6.02944        -1.72069        -2.97746
   C       -6.79988        -0.59036        -3.21650
   C       -7.63438        -0.04701        -2.22628
   N       -8.28418         0.37723        -1.38235
   C       -6.60938        -0.06515        -4.52241
   C       -5.67265        -0.81228        -5.23083
   S       -5.04162        -2.15097        -4.35814
   S       -5.32952        -0.24474        -6.83173
   C       -6.47761         1.02510        -6.56158
   C       -7.09641         1.01342        -5.31621
   C       -8.05111         2.06425        -5.20841
   C       -8.92555         2.27139        -4.12625
   N       -9.67234         2.45843        -3.27711
   C       -8.13099         2.82838        -6.35709
   S       -7.01803         2.28763        -7.59434
   C       -8.99845         3.96389        -6.60278
   C       -9.04405         5.03239        -5.63880
   C       -8.38484         5.16492        -4.46579
   S       -8.72107         6.76138        -3.65764
   F       -9.31235         8.28503        -2.75155
   C       -9.90525         7.10127        -4.91232
   C       -9.92590         6.17057        -5.89101
   C      -10.68145         6.21190        -7.10361
   C      -10.57063         5.21064        -8.00104
   C       -9.75148         4.05554        -7.76042
   C       -9.77138         2.95982        -8.69473
   C       -9.96150         3.04513       -10.03241
   C       -9.84927         1.87961       -10.83051
   C       -9.88135         1.83798       -12.19186
   C       -9.68273         0.66176       -13.01950
   C       -9.20724        -0.55591       -12.60523
   C       -9.02514        -1.66507       -13.45817
   N       -8.86156        -2.60302       -14.09920
   C       -8.78556        -0.86190       -11.29432
   N       -8.39484        -1.17629       -10.26058
   C       -9.99103         1.03374       -14.39389
   C      -10.27647         2.42176       -14.43939
   C      -10.19555         2.98686       -13.07821
   O      -10.36737         4.14420       -12.76143
   C      -10.57745         3.07674       -15.60885
   C      -10.60466         2.32701       -16.78932
   C      -10.32922         0.93895       -16.73257
   C      -10.02073         0.27709       -15.55114
   S      -10.42365         0.20392       -18.30357
   C      -10.82167         1.74894       -19.00696
   C      -10.88345         2.76446       -18.11238
  Br      -11.11897         1.87505       -20.85379
   H        0.16887       -11.35109        -7.19465
   H       -1.58937        -7.08472        -9.00612
   H       -0.67861       -10.78908        -4.97944
   H       -2.46485        -6.48112        -6.74911
   H       -3.24708        -8.00620        -0.67236
   H       -3.96467        -5.73951        -2.42120
   H       -6.29729        -3.23034         1.03127
   H       -4.70890        -3.94382        -2.50508
   H       -6.61434        -2.10605        -0.96925
   H       -7.62371         4.51657        -4.07655
   H       -9.47079         6.13980        -2.72778
   H      -10.43577         8.03012        -4.85659
   H      -11.32811         7.05708        -7.27972
   H      -11.14106         5.23296        -8.91622
   H       -9.58473         1.97612        -8.27958
   H      -10.11769         3.99087       -10.52794
   H       -9.69938         0.95260       -10.29137
   H      -10.78422         4.13545       -15.61311
   H       -9.82029        -0.78128       -15.55862
   H      -11.11571         3.78059       -18.37390
*
