# ORCA input file
# SCF done       -185.690996911261          0.000568866716
! CAM-B3LYP def2-SVP def2/J RIJCOSX Grid4 TightSCF
%maxcore 5000
%tddft
    Mode sTDDFT
    Ethresh 5.0
    maxcore 5000
end

%pal
  nprocs 6
  end
* xyz 0 1
   C       -7.49245        -0.31325         0.72760
   C       -8.66273         0.34232         0.99197
   F       -8.70892         1.67834         0.97276
   C       -9.83727        -0.37843         1.29055
   F      -10.96859         0.28912         1.55020
   C       -9.82985        -1.74546         1.31129
   C       -8.64127        -2.44984         1.04092
   C       -7.45073        -1.72164         0.75177
   C       -6.24493        -2.40876         0.48474
   C       -6.23783        -3.77948         0.47633
   C       -7.43404        -4.49911         0.75572
   C       -8.60606        -3.86299         1.04462
   C       -7.16097        -5.94775         0.68198
   O       -7.90238        -6.85229         1.01467
   C       -5.75446        -6.06248         0.25300
   C       -5.18380        -4.73516         0.15800
   C       -3.92971        -4.41840        -0.29889
   C       -3.42651        -3.10417        -0.38062
   N       -2.95752        -2.06071        -0.47212
   C       -3.00134        -5.35216        -0.79977
   N       -2.23201        -6.06706        -1.26562
   C       -5.07389        -7.24023         0.08585
   N       -5.60555        -8.45487        -0.15815
   C       -6.86645        -8.82136        -0.55713
   S       -7.37028       -10.41542        -0.06785
   C       -8.90015       -10.16568        -0.82842
   N       -9.84203       -11.20728        -0.78601
   O      -10.91356       -11.01878        -1.32588
   O       -9.50358       -12.22615        -0.21292
   C       -9.00893        -8.93968        -1.41840
   C       -7.83942        -8.15315        -1.30682
   C       -7.79559        -6.85711        -1.92936
   C       -6.71241        -6.15640        -2.31476
   N       -6.83083        -4.89054        -2.82748
   C       -5.82806        -4.00133        -3.10886
   S       -6.13515        -2.32914        -2.73506
   C       -4.53995        -1.92798        -3.28136
   N       -4.16755        -0.57946        -3.18417
   O       -3.09588        -0.24676        -3.64237
   O       -4.97468         0.15720        -2.64075
   C       -3.83120        -3.00548        -3.72419
   C       -4.55497        -4.22170        -3.64720
   C       -4.08066        -5.48321        -4.12938
   C       -2.84861        -5.70519        -4.65742
   C       -2.43418        -6.95994        -5.14002
   C       -1.24723        -7.18813        -5.78645
   C       -0.77672        -8.42999        -6.28488
   C        0.41319        -8.35686        -6.93929
   C        0.95158        -7.05048        -7.00614
   S       -0.09367        -5.92083        -6.17140
   C        2.09996        -6.64453        -7.65466
   C        3.00552        -7.44841        -8.38740
   C        4.02328        -6.75861        -8.96653
   C        3.98421        -5.35806        -8.72318
   S        2.60110        -4.96714        -7.70609
   C        4.81813        -4.37581        -9.17128
   N        5.89638        -4.61128        -9.96483
   C        6.70587        -3.67686       -10.51657
   S        6.38207        -1.97960       -10.34230
   C        7.72751        -1.63300       -11.38623
   N        8.00930        -0.29511       -11.64723
   O        8.94844        -0.04199       -12.38336
   O        7.28205         0.53189       -11.11606
   C        8.36613        -2.75965       -11.83935
   C        7.80910        -3.94387       -11.33669
   C        8.34078        -5.25735       -11.65866
   C        8.31948        -6.33723       -10.88405
   H       -6.60511         0.25105         0.48676
   H      -10.73888        -2.28049         1.53766
   H       -5.35743        -1.82810         0.29320
   H       -9.49829        -4.43001         1.26302
   H       -3.99202        -7.24122         0.11800
   H       -5.00387        -9.24319         0.05311
   H       -9.89783        -8.62407        -1.93446
   H       -8.77021        -6.41675        -2.09627
   H       -5.71167        -6.55115        -2.27466
   H       -7.75212        -4.47882        -2.73946
   H       -2.82764        -2.91236        -4.09519
   H       -4.78166        -6.30550        -4.11800
   H       -2.13044        -4.90068        -4.72371
   H       -3.09734        -7.80515        -5.00849
   H       -1.33922        -9.33609        -6.14405
   H        0.91190        -9.20005        -7.38239
   H        2.87687        -8.51248        -8.47098
   H        4.79069        -7.22134        -9.56299
   H        4.64446        -3.34572        -8.89988
   H        6.08100        -5.56850       -10.24363
   H        9.21726        -2.71518       -12.49452
   H        8.82843        -5.31050       -12.62335
   H        7.93404        -6.33530        -9.87740
   H        8.75567        -7.26316       -11.21611
*
