# ORCA input file
# SCF done       -156.617236653442          0.000718804526
! CAM-B3LYP def2-SVP def2/J RIJCOSX Grid4 TightSCF
%maxcore 5000
%tddft
    Mode sTDDFT
    Ethresh 5.0
    maxcore 5000
end

%pal
  nprocs 6
  end
* xyz 0 1
   C        0.52958       -18.77750        -8.60145
   C        1.74302       -18.79333        -8.03378
   C        2.86265       -19.62351        -8.37733
   C        3.96336       -19.41853        -7.62185
   C        3.81177       -18.41612        -6.62195
   S        2.19679       -17.73658        -6.68661
   C        4.75131       -18.00219        -5.71032
   C        6.07887       -18.47477        -5.55087
   C        6.76353       -17.86874        -4.54841
   C        6.03006       -16.87398        -3.84416
   S        4.41821       -16.74682        -4.53004
   C        6.51553       -16.14569        -2.79294
   C        5.85680       -15.14902        -2.04635
   C        4.60691       -14.58052        -2.20055
   C        4.31333       -13.60740        -1.24208
   S        2.88735       -12.57561        -1.27112
   C        1.66154       -13.69735        -2.00134
   C        5.32841       -13.41954        -0.31527
   S        6.69176       -14.43408        -0.68830
   C        5.36550       -12.51665         0.78542
   S        6.76017       -11.52362         1.05098
   C        6.02814       -10.69018         2.38304
   C        4.74209       -11.19204         2.62967
   C        4.38540       -12.25465         1.73909
   C        3.17584       -12.97560         1.95048
   C        2.86607       -14.16125         1.25754
   N        2.57974       -15.16763         0.78170
   C        2.31844       -12.55421         2.94118
   C        2.61955       -11.45498         3.75212
   C        3.81567       -10.78275         3.63294
   O        4.18534        -9.74393         4.42460
   C        3.30188        -9.30820         5.43241
   C        6.72585        -9.66491         3.06731
   C        7.98593        -9.27762         2.76835
   N        8.62762        -8.28026         3.44221
   C        9.90948        -7.88917         3.25889
   S       10.96711        -8.75971         2.19149
   C       12.28099        -7.72838         2.67505
   N       13.52131        -7.95141         2.09079
   O       14.45227        -7.23730         2.43046
   O       13.59087        -8.85858         1.27173
   C       11.91336        -6.78565         3.60118
   C       10.55092        -6.84124         3.93594
   C        9.94295        -5.91530         4.86160
   C        8.65881        -5.51053         4.86883
   C        8.09419        -4.57909         5.80157
   C        8.74558        -3.97597         6.92374
   C        7.85159        -3.12887         7.56036
   C        7.99502        -2.30282         8.69322
   C        6.91021        -1.55866         9.07843
   C        6.71905        -0.63446        10.15287
   C        5.42613        -0.14457        10.09824
   C        4.77171        -0.75326         8.98372
   C        5.65931        -1.61614         8.35215
   C        5.51406        -2.44142         7.22376
   C        6.60053        -3.18850         6.83549
   C        6.79258        -4.10099         5.75751
   C        4.86187         0.81413        11.01826
   C        3.62282         1.29517        10.97474
   H        0.29737       -19.43859        -9.41765
   H       -0.24452       -18.11280        -8.26454
   H        2.78905       -20.33847        -9.17756
   H        4.88954       -19.95258        -7.74188
   H        6.48409       -19.24767        -6.17884
   H        7.77987       -18.09796        -4.27996
   H        7.53020       -16.36700        -2.48716
   H        3.93993       -14.84819        -2.99671
   H        0.69991       -13.20812        -1.88131
   H        1.68249       -14.63214        -1.44751
   H        1.86975       -13.85147        -3.05562
   H        1.39666       -13.09154         3.10868
   H        1.89819       -11.16738         4.49919
   H        3.10909       -10.09752         6.16502
   H        2.35456        -8.95903         5.01160
   H        3.80470        -8.47686         5.92442
   H        6.19668        -9.18283         3.87452
   H        8.54872        -9.73817         1.96914
   H        8.12745        -7.83233         4.20249
   H       12.60893        -6.06916         3.99935
   H       10.63222        -5.48448         5.57406
   H        7.97471        -5.84349         4.09738
   H        9.76244        -4.15159         7.22372
   H        8.93331        -2.26382         9.22893
   H        7.46645        -0.36937        10.87860
   H        3.75615        -0.57022         8.68316
   H        4.57705        -2.47796         6.68521
   H        6.04729        -4.36273         5.02793
   H        5.53690         1.14750        11.79681
   H        2.91591         0.99631        10.22015
   H        3.27145         2.01161        11.69686
*
