# ORCA input file
# SCF done       -175.141373310887          0.000695337621
! CAM-B3LYP def2-SVP def2/J RIJCOSX Grid4 TightSCF
%maxcore 5000
%tddft
    Mode sTDDFT
    Ethresh 5.0
    maxcore 5000
end

%pal
  nprocs 6
  end
* xyz 0 1
   C        3.31414       -14.74767         2.62447
   C        4.13903       -14.67773         1.56720
   C        4.51430       -15.73169         0.67421
   C        5.36679       -15.35045        -0.30868
   C        5.72927       -13.98117        -0.27039
   S        4.94593       -13.18079         1.07169
   C        6.57247       -13.30624        -1.13720
   C        7.25207       -13.82843        -2.25513
   C        8.00466       -12.89513        -2.90628
   C        7.96215       -11.59956        -2.34109
   S        6.91385       -11.59991        -0.94249
   C        8.68062       -10.54415        -2.87452
   C        8.83258        -9.21295        -2.48945
   C        9.67400        -8.36698        -3.27757
   C        9.91842        -6.99780        -2.92088
   N       10.65642        -6.23694        -3.72103
   C       11.18960        -6.73681        -4.82520
   C       10.98444        -8.10189        -5.14441
   N       10.23467        -8.87411        -4.37683
   C       11.57573        -8.66361        -6.30173
   N       12.06714        -9.09706        -7.24205
   C       11.95504        -5.89351        -5.66061
   N       12.58015        -5.23321        -6.35937
   C        9.42860        -6.38915        -1.72072
   C        8.49803        -7.20120        -0.99941
   C        8.21174        -8.56499        -1.38506
   N        7.28872        -9.11348        -0.61458
   S        6.78540        -8.03956         0.48540
   N        7.74432        -6.82303         0.02178
   C        9.83719        -5.08263        -1.42332
   S       10.61575        -4.14410        -2.66018
   C       10.66888        -2.68522        -1.66979
   C       10.16875        -2.96363        -0.36306
   C        9.73542        -4.30925        -0.22068
   C        9.34944        -4.75902         1.03936
   C        9.28433        -3.90240         2.12613
   C        8.85348        -4.41500         3.42498
   C        7.97984        -5.40080         3.58479
   C        9.63440        -2.54505         1.96317
   C        9.52603        -1.58094         3.10456
   C       10.08055        -2.10493         0.73465
   C       11.18396        -1.56878        -2.28667
   C       11.42540        -0.29359        -1.76993
   C       11.88639         0.74583        -2.53685
   C       12.16781         2.02479        -2.03838
   C       12.58214         3.14424        -2.75990
   C       12.78455         4.26902        -1.98668
   C       12.54503         4.06313        -0.62871
   S       12.03985         2.41785        -0.34124
   C       12.68246         4.97658         0.42549
   C       13.03258         6.32929         0.35249
   C       13.09750         6.94558         1.57773
   C       12.81034         6.10500         2.66701
   S       12.43553         4.49688         2.07914
   C       12.83421         6.48132         3.99992
   C       12.60624         5.70324         5.13519
   C       12.28622         4.33073         5.24616
   C       12.18278         4.00543         6.60403
   C       11.90345         2.80440         7.24280
   C       11.88330         2.79707         8.63562
   C       11.64877         1.77439         9.55409
   C       11.75167         2.30295        10.87011
   C       12.04901         3.65814        10.77359
   C       12.14227         4.01225         9.40015
   C       12.41604         5.20368         8.77961
   C       12.44293         5.21905         7.36979
   C       12.69394         6.23286         6.46970
   C       11.58559         1.58588        12.11106
   C       11.31007         0.28903        12.22430
   H        2.84311       -15.67691         2.89195
   H        3.09954       -13.88759         3.23142
   H        4.13067       -16.72780         0.80472
   H        5.75073       -16.01104        -1.06567
   H        7.17477       -14.85825        -2.55439
   H        8.59638       -13.10008        -3.78143
   H        9.25273       -10.79741        -3.76052
   H        9.10468        -5.79479         1.18250
   H        9.27791        -3.93075         4.29438
   H        7.69270        -5.74680         4.56327
   H        7.50143        -5.88032         2.74726
   H        8.53003        -1.61753         3.54303
   H        9.72291        -0.56541         2.76957
   H       10.24638        -1.82835         3.88470
   H       10.36219        -1.07037         0.63469
   H       11.44547        -1.71030        -3.33027
   H       11.26236        -0.09540        -0.72180
   H       12.04354         0.59581        -3.59701
   H       12.72360         3.11323        -3.82572
   H       13.10526         5.21708        -2.37914
   H       13.22578         6.82425        -0.58190
   H       13.35106         7.98180         1.71767
   H       13.07886         7.52268         4.17612
   H       12.14773         3.64233         4.43507
   H       11.71160         1.90353         6.67753
   H       11.42742         0.75313         9.30542
   H       12.18863         4.33283        11.59861
   H       12.60982         6.10689         9.34119
   H       12.92393         7.25652         6.70491
   H       11.70434         2.18668        13.00452
   H       11.18496        -0.34799        11.36566
   H       11.20117        -0.18201        13.18587
*
