# ORCA input file
# SCF done       -171.619985175542          0.000380163636
! CAM-B3LYP def2-SVP def2/J RIJCOSX Grid4 TightSCF
%maxcore 5000
%tddft
    Mode sTDDFT
    Ethresh 5.0
    maxcore 5000
end

%pal
  nprocs 6
  end
* xyz 0 1
   C      -10.19707        -0.79490        -4.57206
   S       -9.37135        -1.04678        -3.06342
   C       -8.07382        -1.79079        -3.88492
   C       -8.28102        -1.83695        -5.27024
   C       -9.50788        -1.25962        -5.64855
   C       -7.14632        -2.47677        -5.91626
   S       -6.93355        -2.75675        -7.51157
   C       -6.24247        -2.80897        -4.82025
   C       -6.80847        -2.39111        -3.62262
   O       -6.00466        -2.67894        -2.58127
   C       -4.91314        -3.29148        -3.12185
   C       -5.00523        -3.40405        -4.49178
   N       -3.97366        -3.74126        -2.22673
   C       -2.60223        -3.76869        -2.48482
   C       -1.94907        -3.20643        -3.53792
   S       -0.25291        -3.46997        -3.46135
   C       -0.41047        -4.35217        -1.99240
   C       -1.70903        -4.44646        -1.58522
   N       -2.18408        -5.09050        -0.46131
   C       -1.42512        -5.53789         0.58589
   C       -1.90633        -6.33479         1.55348
   C       -1.19287        -6.79523         2.72203
   C       -1.81041        -7.74574         3.55048
   C       -1.16865        -8.19689         4.67638
   C        0.10532        -7.71055         5.01659
   C        0.72863        -6.77169         4.20653
   C        0.07955        -6.32523         3.07380
   C        0.52621        -8.34059         6.24663
   C       -0.48569        -9.22358         6.66798
   C       -1.64426        -9.20423         5.69719
   C       -1.86411       -10.58854         5.05946
   C       -0.61712       -11.12394         4.36629
   C       -2.94306        -8.74039         6.38169
   C       -2.80984        -7.36867         7.03189
   C       -0.34815        -9.95747         7.81688
   C        0.81931        -9.82665         8.59250
   C        1.81708        -8.93688         8.15706
   C        1.68403        -8.19964         7.00027
   C        1.03144       -10.55931         9.80625
   C        0.19254       -11.47507        10.36111
   C        0.46496       -12.15611        11.55978
   C       -0.37068       -13.08783        12.12345
   C       -0.16820       -13.80994        13.32339
   C       -1.17324       -14.67614        13.63552
   C       -2.22918       -14.69142        12.69975
   S       -1.90525       -13.55979        11.40437
   C       -3.37837       -15.45990        12.72367
   C       -3.76995       -16.40991        13.69152
   C       -4.96095       -17.01228        13.42105
   C       -5.58509       -16.57902        12.22414
   S       -4.58307       -15.35445        11.45956
   C       -6.77471       -17.04993        11.73133
   C       -7.44648       -16.67400        10.54896
   C       -7.11682       -15.71376         9.59277
   C       -8.11276       -15.72096         8.58128
   C       -8.25417       -14.97675         7.43426
   C       -9.37330       -15.23254         6.62012
   C       -9.78932       -14.66949         5.42685
   C      -11.00808       -15.30197         5.01004
   C      -11.33957       -16.25462         5.95150
   C      -10.34573       -16.25072         6.98262
   C      -10.21171       -16.99089         8.12325
   C       -9.08884       -16.73533         8.94407
   C       -8.67736       -17.29791        10.13203
   C      -11.76828       -15.00930         3.81945
   C      -11.45600       -14.09406         2.90569
   H      -11.15251        -0.31062        -4.55334
   H       -9.85924        -1.19233        -6.66182
   H       -4.29775        -3.86689        -5.14605
   H       -4.22957        -3.57494        -1.26149
   H       -2.35995        -2.63381        -4.34287
   H        0.46457        -4.76401        -1.53458
   H       -3.14788        -5.39234        -0.49097
   H       -0.41142        -5.17141         0.58819
   H       -2.92882        -6.68363         1.46536
   H       -2.79212        -8.11625         3.28945
   H        1.70677        -6.38980         4.45989
   H        0.56286        -5.58630         2.45330
   H       -2.67757       -10.51405         4.33427
   H       -2.17410       -11.28823         5.83869
   H       -0.29735       -10.44793         3.57623
   H       -0.82159       -12.09742         3.92618
   H        0.19969       -11.23174         5.07649
   H       -3.22167        -9.47535         7.13993
   H       -3.74047        -8.71181         5.63569
   H       -2.03313        -7.37966         7.79332
   H       -3.74868        -7.08319         7.50130
   H       -2.55146        -6.61613         6.29001
   H       -1.13148       -10.63071         8.12885
   H        2.71335        -8.83452         8.75302
   H        2.46616        -7.52363         6.68741
   H        1.96233       -10.35283        10.32162
   H       -0.74462       -11.71969         9.87953
   H        1.38985       -11.93920        12.07860
   H        0.71655       -13.66568        13.91851
   H       -1.18134       -15.30268        14.50958
   H       -3.16602       -16.62402        14.55508
   H       -5.41602       -17.76209        14.04467
   H       -7.25608       -17.81757        12.32594
   H       -6.26288       -15.06471         9.60088
   H       -7.53415       -14.21945         7.15835
   H       -9.28423       -13.88488         4.89396
   H      -12.19852       -16.90035         5.92657
   H      -10.93014       -17.74973         8.40137
   H       -9.17596       -18.08091        10.67611
   H      -12.66328       -15.60636         3.69291
   H      -10.57822       -13.47638         2.98773
   H      -12.07336       -13.92908         2.03961
*
