# ORCA input file
# SCF done       -182.772658491771          0.000530134107
! CAM-B3LYP def2-SVP def2/J RIJCOSX Grid4 TightSCF
%maxcore 5000
%tddft
    Mode sTDDFT
    Ethresh 5.0
    maxcore 5000
end

%pal
  nprocs 6
  end
* xyz 0 1
   C       17.79647        10.65612         2.38403
   C       17.98830        11.95641         2.68991
   S       16.56360        12.92260         2.52809
   C       15.66787        11.52513         2.02052
   C       16.45409        10.36525         1.99275
   C       15.89172         9.13059         1.59182
   C       16.79149         7.92502         1.66058
   C       17.00083         7.47971         3.11093
   C       14.56814         9.07179         1.19029
   C       13.95845         7.79414         0.67415
   C       13.47672         6.87187         1.79436
   C       13.76671        10.24296         1.23911
   C       12.37744        10.43205         0.90772
   C       11.97615        11.71753         1.07107
   S       13.20837        12.78151         1.63227
   C       14.33201        11.46021         1.65707
   C       11.41214         9.41785         0.45449
   C       10.69928         8.68183         1.30663
   N        9.76156         7.75160         0.90888
   C        9.18949         6.82884         1.71091
   S        9.66653         6.67162         3.36814
   C        8.55529         5.34512         3.54884
   N        8.47692         4.75875         4.81021
   O        7.70471         3.83032         4.96597
   O        9.20288         5.23003         5.67419
   C        7.87330         5.04714         2.40090
   C        8.21547         5.89055         1.32681
   C        7.64226         5.84511         0.01271
   C        6.84347         4.86807        -0.46234
   C        6.27368         4.88163        -1.76602
   C        5.50884         3.87581        -2.34006
   C        5.21827         2.69630        -1.63530
   N        5.00950         1.75767        -1.01079
   C        5.08322         4.19069        -3.65923
   C        5.53580         5.44662        -4.04478
   S        6.47939         6.24599        -2.84827
   S        5.06238         5.94961        -5.63422
   C        4.23602         4.43361        -5.80276
   C        4.32025         3.58706        -4.70273
   C        3.63593         2.36897        -4.93903
   C        3.53241         1.29111        -4.05276
   N        3.42203         0.37389        -3.37055
   C        3.04413         2.31894        -6.20845
   S        3.32987         3.79137        -7.12061
   C        2.31822         1.23350        -6.71948
   C        1.70436         1.14408        -7.94393
   C        0.99250         0.01972        -8.43392
   C        0.46710         0.18653        -9.67928
   C        0.72682         1.45288       -10.24414
   S        1.68014         2.42526        -9.13696
   C        0.32217         1.95491       -11.46528
   C       -0.43721         1.31624       -12.47160
   C       -0.68375         2.10207       -13.55495
   C       -0.14081         3.41122       -13.47616
   S        0.71740         3.58493       -11.95002
   C       -0.28117         4.38343       -14.43138
   C        0.20338         5.70921       -14.43119
   C       -0.03620         6.63511       -15.45070
   C        0.58808         7.86203       -15.11371
   C        0.64805         9.07501       -15.76258
   C        1.36394        10.11271       -15.14274
   C        1.60663        11.42258       -15.53002
   C        2.40126        12.06677       -14.52917
   C        2.64717        11.15060       -13.52331
   C        2.01858         9.91146       -13.86178
   C        1.96118         8.70910       -13.21185
   C        1.24062         7.66442       -13.83147
   C        1.00194         6.36558       -13.43078
   C        2.87546        13.42965       -14.54476
   C        2.66163        14.31292       -15.51622
   H       18.58704         9.92960         2.42433
   H       18.89579        12.43120         3.00815
   H       17.75923         8.17457         1.21954
   H       16.37977         7.09212         1.09430
   H       17.45604         8.27232         3.69892
   H       17.64787         6.60590         3.14568
   H       16.05092         7.22576         3.57516
   H       14.68051         7.26136         0.05281
   H       13.11275         8.04587         0.03495
   H       14.31423         6.49292         2.37156
   H       12.93802         6.02331         1.37723
   H       12.81361         7.40564         2.46989
   H       10.99286        12.10905         0.89546
   H       11.24539         9.33968        -0.61399
   H       10.83163         8.76507         2.37513
   H        9.54591         7.71062        -0.07886
   H        7.14518         4.25842         2.35667
   H        7.86417         6.67695        -0.64579
   H        6.60323         4.00145         0.13684
   H        2.24100         0.37451        -6.06485
   H        0.89519        -0.87427        -7.84408
   H       -0.10207        -0.56203       -10.20080
   H       -0.77799         0.30190       -12.36718
   H       -1.24636         1.78631       -14.41622
   H       -0.85364         4.09801       -15.30647
   H       -0.60480         6.45054       -16.34369
   H        0.16419         9.23274       -16.71626
   H        1.25438        11.88340       -16.43464
   H        3.21663        11.32817       -12.62921
   H        2.44339         8.54823       -12.25798
   H        1.35644         5.91780       -12.52169
   H        3.45229        13.72004       -13.67530
   H        2.09609        14.07089       -16.39959
   H        3.04768        15.31583       -15.45975
*
