# ORCA input file
# SCF done       -236.228817469016          0.000853218031
! CAM-B3LYP def2-SVP def2/J RIJCOSX Grid4 TightSCF
%maxcore 5000
%tddft
    Mode sTDDFT
    Ethresh 5.0
    maxcore 5000
end

%pal
  nprocs 6
  end
* xyz 0 1
   C       -2.79017        -0.59904        -1.20379
   C       -3.36022        -1.82007        -1.45691
   C       -2.62690        -2.99977        -1.69555
   N       -2.07923        -3.98983        -1.89171
   C       -4.74861        -2.04524        -1.56748
   N       -5.85873        -2.30085        -1.71231
   C       -1.36570        -0.29599        -1.22307
   C       -1.19973         1.10483        -1.08536
   C        0.03687         1.70309        -1.07237
   C        1.16192         0.88343        -1.20669
   C        0.98558        -0.51426        -1.33902
   C       -0.26470        -1.12148        -1.34877
   S        2.51190        -1.32975        -1.47734
   C        3.35482         0.17673        -1.36403
   C        2.53896         1.24447        -1.22712
   C       -2.51854         1.74890        -0.93412
   O       -2.71822         2.92211        -0.69711
   C       -3.50674         0.64090        -0.98487
   C       -4.82329         0.76167        -0.65393
   C       -5.54827         1.98698        -0.62258
   C       -6.56675         2.19821         0.33053
   C       -7.24496         3.46548         0.44934
   N       -8.22688         3.60252         1.35437
   C       -8.50980         2.60434         2.15708
   C       -7.78084         1.37397         2.08678
   N       -6.84958         1.19725         1.18177
   C       -8.07607         0.32767         2.99572
   N       -8.33883        -0.48730         3.75691
   C       -9.55658         2.75765         3.09884
   N      -10.38843         2.85710         3.88071
   C       -6.93655         4.56600        -0.38813
   C       -6.02955         4.29797        -1.43584
   C       -5.34188         3.02970        -1.54669
   N       -4.55536         2.97723        -2.61875
   S       -4.61271         4.38754        -3.37547
   N       -5.66644         5.13156        -2.41648
   C       -7.49887         5.88181        -0.17308
   C       -7.71350         6.74011        -1.26571
   C       -8.20823         7.99993        -1.05363
   C       -8.55443         8.42738         0.24493
   C       -8.33911         7.58920         1.33315
   C       -7.80508         6.33749         1.11994
   C       -9.13555         9.74275         0.15891
   C       -9.14357        10.13763        -1.19366
   C       -8.48473         9.08892        -2.06221
   C       -7.17148         9.70114        -2.60602
   C       -6.23300         8.72627        -3.30462
   C       -9.39665         8.62345        -3.20463
   C      -10.74132         8.10588        -2.70953
   C       -9.67876        11.34022        -1.56410
   C      -10.24234        12.19274        -0.59202
   C      -10.21669        11.78832         0.75491
   C       -9.67056        10.58168         1.13288
   C      -10.83902        13.40346        -1.05984
   C      -11.43535        14.39891        -0.34553
   C      -12.07288        15.52482        -0.90731
   C      -12.43670        15.73327        -2.21978
   C      -13.04305        16.90889        -2.73468
   C      -13.33487        16.86663        -4.06646
   C      -12.99239        15.64563        -4.68385
   S      -12.27876        14.56102        -3.51397
   C      -13.09977        15.22988        -5.99733
   C      -13.52872        15.95267        -7.13963
   C      -13.42971        15.24663        -8.29378
   C      -12.93038        13.91773        -8.12353
   S      -12.63467        13.60505        -6.42677
   C      -12.63569        13.04403        -9.12119
   N      -12.17734        11.75740        -8.92869
   C      -12.55500        10.93614        -7.88398
   O      -13.41445        11.18647        -7.07374
   C      -11.72759         9.65972        -7.95914
   C      -10.94786         9.84989        -9.22042
   C      -11.24617        11.11102        -9.74663
   C      -10.63354        11.57393       -10.89243
   C       -9.70760        10.75113       -11.53266
   C       -9.41457         9.50075       -11.00427
   C      -10.02507         9.04130        -9.84398
   C       -9.04478        11.23089       -12.78759
   C      -10.83557         9.59564        -6.70140
   C       -9.79012        10.70745        -6.77594
   O      -10.02569        11.88749        -6.89041
   N       -8.54358        10.12715        -6.71744
   C       -8.65375         8.73502        -6.61145
   C      -10.00180         8.36495        -6.58713
   C      -10.35923         7.04218        -6.45527
   C       -9.35716         6.08884        -6.33567
   C       -8.01501         6.44557        -6.36655
   C       -6.94285         5.41398        -6.19314
   C       -7.65626         7.78421        -6.52084
   C       -7.32361        10.80254        -6.72396
   C       -7.15616        12.10706        -6.87520
   H        0.13273         2.77250        -0.96431
   H       -0.34875        -2.19148        -1.44223
   H        4.42668         0.16807        -1.40562
   H        2.88433         2.25883        -1.13973
   H       -5.37778        -0.11149        -0.33308
   H       -7.51238         6.38179        -2.26091
   H       -8.57827         7.91484         2.33421
   H       -7.60227         5.70006         1.96495
   H       -6.64060        10.15801        -1.76672
   H       -7.44148        10.50194        -3.29943
   H       -5.86196         7.97533        -2.61312
   H       -5.38039         9.27302        -3.70293
   H       -6.73288         8.22419        -4.12792
   H       -8.89700         7.83179        -3.76375
   H       -9.55831         9.46458        -3.88239
   H      -10.60142         7.27003        -2.02791
   H      -11.34179         7.76632        -3.55052
   H      -11.28805         8.88725        -2.18654
   H       -9.69470        11.64540        -2.60086
   H      -10.64149        12.43502         1.50721
   H       -9.66467        10.28603         2.17143
   H      -10.77990        13.52214        -2.13161
   H      -11.41528        14.36376         0.73565
   H      -12.33990        16.32094        -0.22315
   H      -13.23896        17.75639        -2.10101
   H      -13.79481        17.67154        -4.61181
   H      -13.88002        16.96714        -7.07360
   H      -13.68875        15.62354        -9.26750
   H      -12.73486        13.35274       -10.15335
   H      -12.37995         8.78280        -7.97636
   H      -10.84890        12.55304       -11.29145
   H       -8.69259         8.87233       -11.50368
   H       -9.77968         8.07038        -9.44054
   H       -9.77689        11.31467       -13.59029
   H       -8.26488        10.54401       -13.10416
   H       -8.60500        12.21483       -12.63482
   H      -11.48045         9.75086        -5.82909
   H      -11.39821         6.75021        -6.43566
   H       -9.62504         5.05018        -6.21565
   H       -7.32547         4.41610        -6.38852
   H       -6.56747         5.44228        -5.16870
   H       -6.10424         5.60819        -6.85911
   H       -6.61030         8.04619        -6.56365
   H       -6.47943        10.14439        -6.57780
   H       -7.97932        12.78146        -7.01715
   H       -6.16662        12.52660        -6.85228
*
