# ORCA input file
# SCF done       -204.845181975278          0.000628374399
! CAM-B3LYP def2-SVP def2/J RIJCOSX Grid4 TightSCF
%maxcore 5000
%tddft
    Mode sTDDFT
    Ethresh 5.0
    maxcore 5000
end

%pal
  nprocs 6
  end
* xyz 0 1
   C       -7.78625        10.26808        -6.63177
   C       -7.98034         9.67604        -7.85566
   C       -8.08225        10.38113        -9.07199
   N       -8.16994        10.88933       -10.09813
   C       -8.10905         8.29115        -8.07591
   N       -8.23123         7.17365        -8.31663
   C       -7.71174        11.70650        -6.39599
   C       -7.53260        11.93189        -5.00887
   C       -7.43368        13.19011        -4.46854
   C       -7.52757        14.28270        -5.33679
   C       -7.70709        14.04911        -6.72032
   C       -7.79862        12.77477        -7.26818
   S       -7.79581        15.54166        -7.60310
   C       -7.59836        16.44544        -6.14199
   C       -7.47019        15.67364        -5.04062
   C       -7.46564        10.63580        -4.30985
   O       -7.19244        10.45863        -3.13710
   C       -7.67831         9.61070        -5.34692
   C       -7.65676         8.25470        -5.13909
   N       -7.75714         7.61520        -3.96540
   C       -8.33315         8.09035        -2.78417
   C       -9.46028         8.85933        -2.73619
   S       -9.98319         9.15293        -1.13865
   C       -8.68383         8.22970        -0.50173
   C       -7.87104         7.72459        -1.47713
   N       -6.77575         6.92637        -1.21185
   C       -5.62829         6.84204        -1.95855
   C       -4.56348         6.12148        -1.57053
   C       -3.33180         5.94621        -2.30326
   C       -2.25066         5.34050        -1.64313
   C       -1.06064         5.14615        -2.29908
   C       -0.90947         5.57284        -3.63226
   C       -1.97352         6.16410        -4.30113
   C       -3.16993         6.34113        -3.63837
   C        0.45395         5.33612        -4.04192
   C        1.15471         4.78202        -2.95391
   C        0.22310         4.53501        -1.78730
   C        0.71606         5.20134        -0.49481
   C        0.97384         6.69344        -0.67037
   C        0.10600         2.99967        -1.63061
   C       -0.92327         2.51246        -0.61964
   C        2.49530         4.52291        -3.04849
   C        3.18346         4.79920        -4.24693
   C        2.46165         5.32102        -5.33461
   C        1.11460         5.59433        -5.23859
   C        4.59656         4.57930        -4.26797
   C        5.43460         4.62525        -5.34065
   C        6.83792         4.49956        -5.28591
   C        7.66679         4.60721        -4.19322
   C        9.08002         4.50006        -4.22068
   C        9.69364         4.74197        -3.02723
   C        8.79820         5.05801        -1.98388
   S        7.15488         5.00890        -2.56064
   C        9.07590         5.39240        -0.66751
   C       10.32346         5.49845        -0.02582
   C       10.23701         5.90281         1.27770
   C        8.91937         6.13384         1.72447
   S        7.78417         5.79870         0.44279
   C        8.52960         6.57683         2.97858
   C        7.20425         6.80569         3.31376
   C        6.66497         7.28854         4.49124
   C        7.21195         7.50656         5.79901
   C        8.27622         6.85879         6.38689
   C        8.73522         7.12345         7.69067
   N        9.16913         7.30641         8.73906
   C        8.97154         5.77570         5.81769
   N        9.55377         4.86001         5.43923
   C        6.30423         8.41412         6.50637
   C        5.13532         8.58333         5.72476
   C        5.29479         7.83702         4.45777
   O        4.48205         7.72804         3.56182
   C        4.07752         9.35609         6.13301
   C        4.18236        10.00590         7.36842
   C        5.35832         9.84243         8.13442
   C        6.42629         9.05078         7.72499
   S        5.28444        10.74415         9.61914
   C        3.69303        11.31680         9.19531
   C        3.23927        10.85965         8.00519
  Br        2.78024        12.46668        10.36458
   H       -7.29503        13.32684        -3.40723
   H       -7.93172        12.65107        -8.32981
   H       -7.59022        17.51658        -6.19961
   H       -7.33880        16.06048        -4.04622
   H       -7.52012         7.59693        -5.98847
   H       -7.51375         6.63261        -3.95290
   H      -10.00923         9.25977        -3.56459
   H       -8.57964         8.11648         0.55822
   H       -6.70795         6.59118        -0.26027
   H       -5.63153         7.41115        -2.87374
   H       -4.60861         5.62271        -0.60946
   H       -2.36576         5.05589        -0.60765
   H       -1.86531         6.48861        -5.32562
   H       -3.99492         6.79857        -4.16338
   H        1.63616         4.71007        -0.17237
   H       -0.03066         5.06050         0.28751
   H        1.72925         6.86716        -1.43354
   H        1.32611         7.12341         0.26405
   H        0.06209         7.20772        -0.96752
   H        1.09060         2.62017        -1.34829
   H       -0.14038         2.58080        -2.61028
   H       -0.72113         2.90671         0.37259
   H       -0.88619         1.42644        -0.56411
   H       -1.92711         2.80053        -0.91946
   H        3.04322         4.11780        -2.20994
   H        2.97886         5.53688        -6.25698
   H        0.58128         6.01272        -6.07929
   H        5.01808         4.32463        -3.30522
   H        5.01723         4.74147        -6.33187
   H        7.34506         4.34980        -6.23157
   H        9.60212         4.25428        -5.12892
   H       10.75773         4.71544        -2.87644
   H       11.24728         5.28368        -0.53258
   H       11.08059         6.03913         1.93051
   H        9.31938         6.77474         3.68688
   H        6.47255         6.68363         2.51889
   H        3.19658         9.46019         5.51913
   H        7.30357         8.96185         8.34379
   H        2.28073        11.11286         7.59014
*
