# ORCA input file
# SCF done       -218.870320460776          0.000975141367
! CAM-B3LYP def2-SVP def2/J RIJCOSX Grid4 TightSCF
%maxcore 5000
%tddft
    Mode sTDDFT
    Ethresh 5.0
    maxcore 5000
end

%pal
  nprocs 6
  end
* xyz 0 1
   C       -1.43205        -2.50726        -0.39551
   C       -0.27545        -2.51717        -1.13079
   C        0.61307        -3.61053        -1.19169
   N        1.37430        -4.46583        -1.27446
   C        0.20531        -1.42800        -1.88858
   N        0.67991        -0.57883        -2.49817
   C       -1.89340        -3.56750         0.48982
   C       -3.04705        -3.11541         1.17880
   C       -3.71168        -3.89333         2.09612
   C       -3.21258        -5.17399         2.35165
   C       -2.06222        -5.61784         1.65608
   C       -1.39196        -4.83397         0.72450
   S       -1.63059        -7.23289         2.12214
   C       -2.96325        -7.29765         3.22308
   C       -3.70251        -6.16727         3.24588
   C       -3.39156        -1.75449         0.73127
   O       -4.38027        -1.12529         1.04025
   C       -2.35276        -1.39279        -0.27371
   C       -2.39624        -0.28671        -1.06508
   C       -3.17172         0.87908        -0.79227
   C       -3.73915         1.63261        -1.84471
   C       -4.54905         2.80025        -1.59984
   N       -5.14725         3.42186        -2.62975
   C       -4.95304         2.97330        -3.84909
   C       -4.09971         1.85229        -4.09416
   N       -3.53468         1.20843        -3.10071
   C       -3.86839         1.42279        -5.42487
   N       -3.71522         1.10388        -6.51419
   C       -5.59233         3.62999        -4.92917
   N       -6.08619         4.15224        -5.82145
   C       -4.77354         3.28072        -0.29341
   C       -4.17187         2.55371         0.75142
   C       -3.35888         1.38708         0.50701
   N       -2.80525         0.92601         1.62745
   S       -3.29721         1.81855         2.86057
   N       -4.21382         2.86486         2.05091
   C       -5.58973         4.43487         0.02293
   C       -6.35057         4.29864         1.28183
   C       -7.14700         3.17302         1.50739
   C       -7.85068         2.99522         2.69224
   C       -7.77858         3.96195         3.69184
   C       -6.99737         5.09330         3.48777
   C       -6.29178         5.24676         2.30101
   F       -5.53350         6.34329         2.16746
   F       -6.93394         6.04822         4.42391
   F       -8.45802         3.80940         4.82815
   F       -8.60539         1.91148         2.87295
   F       -7.25905         2.24674         0.55446
   C       -5.68566         5.59148        -0.69612
   C       -4.84526         5.87784        -1.86513
   C       -3.46352         5.66538        -1.87351
   C       -2.68109         5.95305        -2.98390
   C       -3.26595         6.49429        -4.12543
   C       -4.63560         6.74418        -4.13586
   C       -5.40325         6.43671        -3.01977
   F       -6.71693         6.67311        -3.07301
   F       -5.20283         7.29453        -5.20757
   F       -2.51867         6.78446        -5.18901
   F       -1.36599         5.72474        -2.95126
   F       -2.85366         5.19334        -0.77749
   C       -6.67448         6.59279        -0.31893
   C       -6.52425         7.92274        -0.32180
   C       -5.27069         8.65908        -0.66349
   C       -7.64274         8.79024         0.20706
   N       -7.37548         9.09350         1.59664
   C       -6.76499        10.21196         2.01854
   C       -6.19055        10.34411         3.25072
   C       -5.62897        11.53929         3.71487
   C       -5.02116        11.69125         4.93873
   C       -4.43560        12.86754         5.46156
   C       -3.89778        12.72208         6.70432
   C       -4.02644        11.41671         7.23392
   S       -4.86086        10.38059         6.10018
   C       -3.57917        10.95061         8.45421
   C       -2.88789        11.68264         9.45619
   C       -2.56522        10.95784        10.55251
   C       -2.98137         9.58731        10.49759
   S       -3.80942         9.29219         8.96062
   C       -2.80172         8.63381        11.42377
   H       -4.58929        -3.52228         2.60248
   H       -0.52498        -5.21947         0.21436
   H       -3.11331        -8.19383         3.79321
   H       -4.56848        -6.02641         3.86707
   H       -1.84681        -0.26728        -1.99786
   H       -7.61643         6.18734         0.03056
   H       -4.39594         8.02035        -0.59511
   H       -5.13739         9.49603         0.02124
   H       -5.33294         9.06247        -1.67496
   H       -8.60279         8.27224         0.13713
   H       -7.70453         9.72710        -0.34981
   H       -7.29258         8.29012         2.20550
   H       -6.79652        11.05167         1.33594
   H       -6.16027         9.48503         3.90774
   H       -5.66582        12.40894         3.07129
   H       -4.43049        13.78643         4.90190
   H       -3.41440        13.51217         7.24975
   H       -2.65262        12.72426         9.32865
   H       -2.04185        11.33924        11.41094
   H       -2.29170         8.85283        12.34510
   H       -3.15630         7.63004        11.27787
*
