# ORCA input file
# SCF done       -198.781024311199          0.000381126698
! CAM-B3LYP def2-SVP def2/J RIJCOSX Grid4 TightSCF
%maxcore 5000
%tddft
    Mode sTDDFT
    Ethresh 5.0
    maxcore 5000
end

%pal
  nprocs 6
  end
* xyz 0 1
   C        0.75169         1.37604        -0.01344
   C        1.61748         1.90547        -0.92894
   C        2.69612         1.19047        -1.49268
   N        3.58099         0.64534        -1.97834
   C        1.59106         3.25083        -1.36081
   N        1.65575         4.34423        -1.70239
   C        0.83281         0.05502         0.59354
   C       -0.10081        -0.01273         1.65969
   C       -0.25759        -1.13509         2.43750
   C        0.53724        -2.24721         2.14315
   C        1.46343        -2.17292         1.07327
   C        1.62776        -1.03526         0.29244
   S        2.33455        -3.66206         0.87903
   C        1.45756        -4.35600         2.21726
   C        0.55757        -3.51600         2.78303
  Br        1.81052        -6.12114         2.73947
   C       -0.82497         1.26403         1.75576
   O       -1.63912         1.57748         2.60319
   C       -0.37117         2.06904         0.60571
   C       -1.01407         3.14333         0.07232
   C       -2.16990         3.81356         0.54303
   C       -2.91926         4.69238        -0.23251
   C       -2.57669         4.98259        -1.65187
   O       -2.28130         4.13687        -2.44794
   O       -2.61482         6.28128        -1.99725
   C       -4.07662         5.18841         0.43685
   C       -4.09585         4.74430         1.75121
   S       -2.83435         3.68773         2.15088
   C       -5.12023         5.90535        -0.22913
   C       -6.41847         6.04424         0.16493
   C       -7.45678         6.58458        -0.65071
   C       -8.70832         6.41225        -0.15383
   C       -8.73736         5.76476         1.10493
   S       -7.11610         5.42744         1.65795
   C       -9.85092         5.33939         1.80391
   C       -9.89464         4.73407         3.07449
   C      -11.14268         4.30334         3.41161
   C      -12.12208         4.49446         2.40317
   S      -11.44451         5.37097         1.06289
   C      -13.37576         3.91158         2.48997
   C      -14.37323         3.72062         1.53339
   C      -14.40146         4.26779         0.21710
   C      -15.33221         3.80897        -0.78476
   N      -15.34367         4.39017        -1.99488
   C      -14.47202         5.33107        -2.26578
   C      -13.48979         5.72142        -1.31090
   N      -13.50970         5.19831        -0.09620
   C      -12.46677         6.64017        -1.62952
   N      -11.61685         7.36002        -1.90519
   C      -14.51254         5.97466        -3.53039
   N      -14.50687         6.52267        -4.53560
   C      -16.18244         2.70398        -0.55706
   C      -16.25187         2.24311         0.77999
   C      -15.40757         2.78169         1.81433
   N      -15.64477         2.22184         2.99382
   S      -16.82062         1.13416         2.83580
   N      -17.07397         1.30928         1.25318
   C      -16.90089         2.12627        -1.63699
   C      -17.30343         0.83224        -1.77604
   C      -16.93754        -0.36743        -1.06046
   C      -15.75935        -0.59909        -0.39474
   C      -15.45291        -1.79735         0.27908
   N      -15.15854        -2.73121         0.87941
   C      -14.67805         0.30063        -0.34917
   N      -13.74170         0.96546        -0.30017
   C      -17.92815        -1.38773        -1.38204
   C      -18.75091        -0.90727        -2.43194
   C      -18.35248         0.47699        -2.76811
   O      -18.80545         1.18570        -3.63642
   C      -19.74167        -1.67061        -2.99892
   C      -19.93584        -2.96411        -2.50101
   C      -19.12135        -3.42639        -1.44010
   C      -18.11414        -2.65750        -0.87033
   S      -19.53568        -5.04859        -0.97558
   C      -20.77498        -5.08688        -2.20171
   C      -20.87798        -3.94349        -2.91968
  Br      -21.81408        -6.63301        -2.41703
   H       -0.97364        -1.15601         3.24398
   H        2.34127        -1.02698        -0.51471
   H       -0.06799        -3.77997         3.61605
   H       -0.66827         3.49636        -0.89199
   H       -2.75508         6.87054        -1.24371
   H       -4.82340         4.99355         2.49739
   H       -4.90489         6.26883        -1.22566
   H       -7.23744         7.04488        -1.59743
   H       -9.61433         6.72015        -0.64774
   H       -9.01855         4.63058         3.69156
   H      -11.38475         3.80719         4.33489
   H      -13.57318         3.39858         3.42472
   H      -17.16884         2.80140        -2.44317
   H      -20.34575        -1.28577        -3.80548
   H      -17.51947        -3.05000        -0.06215
   H      -21.58706        -3.79524        -3.71350
*
