# ORCA input file
# SCF done       -184.982513233603          0.000539598384
! CAM-B3LYP def2-SVP def2/J RIJCOSX Grid4 TightSCF
%maxcore 5000
%tddft
    Mode sTDDFT
    Ethresh 5.0
    maxcore 5000
end

%pal
  nprocs 6
  end
* xyz 0 1
   C       -3.04331        -1.42387         0.85509
   C       -3.69506        -2.61685         0.67125
   C       -3.07360        -3.88034         0.75496
   N       -2.62916        -4.93773         0.80783
   C       -5.06578        -2.77150         0.37737
   N       -6.16878        -2.98883         0.14116
   C       -1.62462        -1.28064         1.16651
   C       -1.32331         0.09631         1.30196
   C       -0.06222         0.55497         1.59507
   C        0.95454        -0.39098         1.76032
   C        0.64556        -1.76496         1.62139
   C       -0.63058        -2.22847         1.32727
   S        2.04811        -2.76285         1.86130
   C        3.01647        -1.34006         2.14109
   C        2.32780        -0.17693         2.05993
  Br        4.84583        -1.52433         2.51202
   C       -2.54668         0.89110         1.07530
   O       -2.63207         2.10154         1.12339
   C       -3.61519        -0.09281         0.78264
   C       -4.91081         0.22617         0.48081
   C       -5.42185         1.54032         0.39976
   C       -6.71807         1.77746         0.07243
   C       -7.34381         3.06131        -0.06373
   C       -6.66290         4.26556         0.19334
   C       -7.31360         5.45963         0.01859
   C       -8.65359         5.49360        -0.41060
   C       -9.34390         4.31230        -0.65381
   C       -8.68673         3.11432        -0.47712
   C       -9.05602         6.87347        -0.54581
   C       -7.97049         7.69768        -0.19212
   C       -6.79481         6.86156         0.25961
   C       -6.54087         6.99385         1.78044
   C       -6.18329         8.38886         2.27546
   C       -5.52629         7.15630        -0.55492
   C       -5.72282         6.90679        -2.04607
   C       -8.07550         9.06145        -0.31400
   C       -9.27460         9.63758        -0.76900
   C      -10.35519         8.79988        -1.08380
   C      -10.25265         7.42935        -0.98061
   C       -9.33631        11.07207        -0.88368
   C      -10.30487        11.77831        -1.50847
   C      -10.34238        13.19607        -1.58861
   S      -11.59087        13.96720        -2.51059
   C      -11.00908        15.56287        -2.15484
   C       -9.87069        15.48283        -1.34536
   C       -9.50159        14.15405        -1.01724
   O       -8.45913        13.83887        -0.25014
   C       -9.12527        16.59832        -0.77174
   O       -8.12704        16.43695        -0.08939
   O       -9.60634        17.81078        -1.03012
   C      -11.56852        16.71044        -2.75604
   C      -12.81417        16.87576        -3.28399
   C      -14.04210        16.12592        -3.13694
   C      -14.43866        15.44152        -2.01675
   C      -15.69063        14.80988        -1.88552
   N      -16.69198        14.26687        -1.74334
   C      -13.66363        15.38408        -0.84040
   N      -13.07751        15.35486         0.14615
   C      -14.90166        16.47936        -4.26099
   C      -14.33154        17.58948        -4.93503
   C      -13.04621        17.94065        -4.29674
   O      -12.30851        18.86017        -4.56625
   C      -14.93632        18.18262        -6.01640
   C      -16.15112        17.64817        -6.45951
   C      -16.70320        16.53075        -5.78798
   C      -16.09765        15.93611        -4.68746
   S      -18.20048        16.02702        -6.51001
   C      -18.07047        17.30927        -7.68474
   C      -16.96224        18.07509        -7.54648
  Br      -19.40788        17.51323        -8.98318
   H        0.13393         1.61130         1.69230
   H       -0.81259        -3.28563         1.23175
   H        2.76832         0.79262         2.20445
   H       -5.60931        -0.57514         0.27637
   H       -4.73734         2.34945         0.59822
   H       -7.35685         0.92241        -0.12079
   H       -5.63543         4.24525         0.52014
   H      -10.37357         4.33205        -0.97740
   H       -9.20770         2.18677        -0.66629
   H       -5.73425         6.30525         2.04115
   H       -7.44185         6.65830         2.30111
   H       -5.29855         8.77360         1.77545
   H       -5.97402         8.34671         3.34215
   H       -7.00749         9.07981         2.12201
   H       -4.71529         6.52629        -0.18460
   H       -5.23914         8.19747        -0.40447
   H       -5.97746         5.86594        -2.23366
   H       -4.80904         7.13926        -2.58781
   H       -6.52323         7.53117        -2.43771
   H       -7.24057         9.70841        -0.09091
   H      -11.28817         9.23401        -1.40734
   H      -11.08908         6.79733        -1.23879
   H       -8.51601        11.61459        -0.43678
   H      -11.12186        11.27460        -2.00642
   H       -8.03653        14.68205         0.04147
   H       -9.06225        18.48559        -0.59220
   H      -10.89554        17.54958        -2.89721
   H      -14.48796        19.03262        -6.50623
   H      -16.54949        15.08333        -4.20810
   H      -16.72440        18.90693        -8.18397
*
