# ORCA input file
# SCF done       -182.012820828893          0.001387098762
! CAM-B3LYP def2-SVP def2/J RIJCOSX Grid4 TightSCF
%maxcore 5000
%tddft
    Mode sTDDFT
    Ethresh 5.0
    maxcore 5000
end

%pal
  nprocs 6
  end
* xyz 0 1
   C       -3.52661        -1.88005        -0.76835
   C       -2.72211        -2.27487        -1.80637
   C       -2.06717        -3.52260        -1.86816
   N       -1.48179        -4.50613        -1.95412
   C       -2.39875        -1.48897        -2.93020
   N       -2.06997        -0.91310        -3.86808
   C       -3.87430        -2.68402         0.39507
   C       -4.69403        -1.91512         1.26055
   C       -5.17539        -2.40085         2.45124
   C       -4.81997        -3.70350         2.81600
   C       -4.00348        -4.46662         1.94518
   C       -3.52835        -3.97996         0.73414
   S       -3.67731        -6.04280         2.59241
   C       -4.63097        -5.66573         4.00181
   C       -5.16718        -4.42128         3.99119
  Br       -4.83308        -6.94798         5.35143
   C       -4.92276        -0.58749         0.66736
   O       -5.70088         0.25807         1.04495
   C       -4.10171        -0.56015        -0.57785
   C       -3.97409         0.52225        -1.38808
   C       -4.32184         1.86044        -1.01821
   N       -4.70342         2.67889        -1.98661
   N       -5.05278         3.89800        -1.77668
   C       -5.10724         4.49325        -0.58095
   C       -4.65174         3.74062         0.54120
   C       -4.19760         2.39481         0.30247
   N       -3.64494         1.96577         1.41572
   O       -3.76924         2.96072         2.29474
   N       -4.37244         4.03398         1.79044
   C       -5.52326         5.83702        -0.58075
   C       -5.62179         6.48884        -1.78971
   C       -5.98782         7.84008        -2.03988
   C       -5.84888         8.21781        -3.34098
   C       -5.32338         7.18561        -4.15467
   S       -5.15232         5.68202        -3.25310
   C       -4.84397         7.21248        -5.44868
   C       -4.94930         8.19067        -6.46448
   C       -4.25283         7.86086        -7.58759
   C       -3.53075         6.64115        -7.47796
   S       -3.81468         5.87139        -5.95112
   C       -2.62475         6.10886        -8.37053
   C       -1.88456         4.97895        -7.98579
   N       -2.20529         4.42404        -6.81111
   N       -1.50848         3.53213        -6.19669
   C       -0.39065         3.01834        -6.68996
   C       -0.00091         3.40854        -8.01122
   C       -0.77025         4.42429        -8.68449
   N       -0.21757         4.62618        -9.85857
   O        0.82151         3.79312        -9.92207
   N        0.97171         3.05579        -8.82138
   C        0.37490         2.07366        -5.94569
   C        0.31665         1.73996        -4.63042
   C       -0.39182         2.27695        -3.48365
   C       -0.83802         3.56013        -3.30826
   C       -1.53099         4.00735        -2.16694
   N       -2.11235         4.42037        -1.26598
   C       -0.53496         4.63286        -4.17420
   N       -0.20596         5.57606        -4.74083
   C       -0.36372         1.25217        -2.44327
   C        0.47232         0.18635        -2.85934
   C        1.00579         0.48414        -4.20180
   O        1.81024        -0.14939        -4.83962
   C        0.69944        -0.92544        -2.08324
   C        0.06646        -0.99349        -0.83846
   C       -0.74086         0.09057        -0.41366
   C       -0.96069         1.21648        -1.19650
   S       -1.41772        -0.18587         1.16276
   C       -0.63560        -1.74744         1.21676
   C        0.10555        -2.04203         0.12372
  Br       -0.88972        -2.83835         2.71592
   H       -5.79756        -1.79004         3.08640
   H       -2.91207        -4.60172         0.10636
   H       -5.78154        -4.02515         4.77910
   H       -3.60127         0.41807        -2.39808
   H       -5.70335         6.34283         0.35393
   H       -6.32480         8.48558        -1.24742
   H       -6.05081         9.20767        -3.71182
   H       -5.53479         9.08657        -6.35292
   H       -4.20691         8.46189        -8.47912
   H       -2.41476         6.58492        -9.31496
   H        1.08131         1.49902        -6.53760
   H        1.33553        -1.72404        -2.43105
   H       -1.57769         2.01705        -0.82720
   H        0.64877        -2.95980        -0.01021
*
