# ORCA input file
# SCF done       -208.481504843030          0.000858748560
! CAM-B3LYP def2-SVP def2/J RIJCOSX Grid4 TightSCF
%maxcore 5000
%tddft
    Mode sTDDFT
    Ethresh 5.0
    maxcore 5000
end

%pal
  nprocs 6
  end
* xyz 0 1
   C       -3.95879        -1.83084         9.81478
   C       -3.24872        -2.92854        10.21361
   F       -2.72160        -2.97868        11.44394
   C       -3.06160        -4.01827         9.33975
   F       -2.36080        -5.08071         9.75768
   C       -3.58679        -3.99483         8.07776
   C       -4.32181        -2.87759         7.63707
   C       -4.51358        -1.77576         8.52030
   C       -5.25240        -0.64534         8.10234
   C       -5.78493        -0.61793         6.83984
   C       -5.58400        -1.72143         5.96430
   C       -4.87349        -2.82510         6.33736
   C       -6.24752        -1.44857         4.67958
   O       -6.20331        -2.13190         3.67295
   C       -6.89879        -0.13572         4.83005
   C       -6.59097         0.38449         6.15046
   C       -7.01109         1.57180         6.69366
   C       -7.83244         2.51908         6.04987
   N       -8.49904         3.32950         5.58183
   C       -6.67405         2.01132         7.99128
   N       -6.43239         2.43331         9.03106
   C       -7.55096         0.55606         3.84453
   N       -8.00887         0.11102         2.65624
   C       -8.39437        -1.13357         2.24023
   S       -8.80007        -2.41104         3.32601
   C       -9.41201        -3.33251         1.99804
   N       -9.90730        -4.61262         2.28430
   O      -10.32264        -5.28392         1.36136
   O       -9.87875        -4.95338         3.45440
   C       -9.31324        -2.69280         0.79059
   C       -8.71788        -1.42430         0.90690
   C       -8.49718        -0.55746        -0.22151
   C       -7.51410         0.36125        -0.31970
   C       -7.32096         1.24456        -1.42606
   C       -8.19565         1.60621        -2.44135
   C       -9.54704         1.22506        -2.45455
   N      -10.66280         0.96162        -2.41279
   C       -7.61211         2.51937        -3.36374
   C       -6.31218         2.85003        -2.99441
   S       -5.77404         2.05177        -1.57065
   S       -5.52790         4.01588        -4.00837
   C       -6.97565         4.06525        -4.96580
   C       -7.99395         3.22326        -4.54357
   C       -9.11943         3.29708        -5.41678
   C      -10.21323         2.42013        -5.34112
   N      -11.06679         1.65365        -5.31652
   C       -8.94284         4.21227        -6.44035
   S       -7.36705         4.97196        -6.37352
   C       -9.86980         4.59383        -7.47935
   C      -11.25098         4.41822        -7.30303
   C      -12.11127         4.79206        -8.30640
   C      -11.61895         5.39549        -9.47913
   C      -10.25462         5.58109        -9.65672
   C       -9.39236         5.17367        -8.66101
   C      -12.73939         5.77716       -10.30778
   C      -13.92528         5.40881        -9.64939
   C      -13.61797         4.69087        -8.35261
   C      -14.08418         3.22510        -8.52611
   C      -13.82435         2.29394        -7.34992
   C      -14.28483         5.36108        -7.14305
   C      -13.94387         6.84354        -7.04009
   C      -15.14615         5.68140       -10.21192
   C      -15.21919         6.34459       -11.45063
   C      -14.02237         6.70153       -12.09353
   C      -12.79279         6.42355       -11.53618
   C      -16.52215         6.61312       -11.99392
   C      -16.80522         7.29274       -13.13433
   C      -18.08892         7.54441       -13.67208
   C      -19.32359         7.13935       -13.23693
   C      -20.54682         7.46172       -13.89008
   C      -21.65946         6.94647       -13.30899
   C      -21.39690         6.17646       -12.14820
   S      -19.67204         6.14485       -11.83104
   C      -22.29636         5.52245       -11.34280
   C      -23.71130         5.46862       -11.49163
   C      -24.34406         4.74042       -10.54627
   C      -23.47416         4.15573        -9.56560
   S      -21.80075         4.60160        -9.93560
   C      -23.81363         3.38907        -8.52078
   H       -4.09392        -1.00591        10.49680
   H       -3.43573        -4.83735         7.42124
   H       -5.37856         0.17063         8.79511
   H       -4.74025        -3.64910         5.65318
   H       -7.71477         1.61692         3.98615
   H       -8.22191         0.83137         1.97076
   H       -9.63792        -3.13161        -0.13529
   H       -9.17017        -0.70894        -1.05271
   H       -6.74399         0.41803         0.43957
   H      -11.62502         4.02516        -6.37210
   H       -9.87210         6.04127       -10.55506
   H       -8.32647         5.30280        -8.78809
   H      -13.58844         2.82236        -9.41371
   H      -15.15716         3.24554        -8.73095
   H      -12.76318         2.19253        -7.14286
   H      -14.21194         1.30577        -7.58720
   H      -14.32409         2.63982        -6.44964
   H      -13.95935         4.85665        -6.23282
   H      -15.36664         5.24136        -7.22736
   H      -12.86864         6.98422        -6.94862
   H      -14.42298         7.27830        -6.16582
   H      -14.28488         7.38078        -7.92243
   H      -16.06245         5.40201        -9.71174
   H      -14.06104         7.20210       -13.04847
   H      -11.88481         6.70585       -12.04849
   H      -17.34109         6.22783       -11.40343
   H      -15.98945         7.70399       -13.71361
   H      -18.10741         8.14278       -14.57548
   H      -20.55428         8.06918       -14.77845
   H      -22.65852         7.09343       -13.67832
   H      -24.20756         5.97508       -12.30052
   H      -25.40736         4.58617       -10.49629
   H      -24.84360         3.14172        -8.33341
   H      -23.07749         2.99901        -7.84219
*
