# ORCA input file
# SCF done       -250.445876396962          0.000446889847
! CAM-B3LYP def2-SVP def2/J RIJCOSX Grid4 TightSCF
%maxcore 5000
%tddft
    Mode sTDDFT
    Ethresh 5.0
    maxcore 5000
end

%pal
  nprocs 6
  end
* xyz 0 1
   C        1.95208        -4.56829        -1.46480
   C        3.21775        -4.87860        -0.83107
   C        4.41894        -4.22225        -1.12349
   C        5.61797        -4.57399        -0.51846
   C        5.65432        -5.62013         0.39888
   C        4.48206        -6.31810         0.68493
   C        3.29424        -5.95072         0.06860
   F        2.18179        -6.63114         0.35095
   F        4.50803        -7.33761         1.54033
   F        6.80028        -5.96302         0.97925
   F        6.73492        -3.91034        -0.82330
   F        4.43508        -3.24707        -2.04375
   C        1.48437        -3.36959        -1.88496
   C        0.27543        -3.34251        -2.75340
   C       -0.87045        -4.07469        -2.43786
   C       -1.99137        -4.08385        -3.26300
   C       -2.00229        -3.31861        -4.42523
   C       -0.87589        -2.57549        -4.76185
   C        0.24120        -2.60262        -3.93633
   F        1.32441        -1.91210        -4.32060
   F       -0.86166        -1.85238        -5.88202
   F       -3.07601        -3.30057        -5.21115
   F       -3.04995        -4.81992        -2.94143
   F       -0.91725        -4.78136        -1.30881
   N        1.99879        -2.11854        -1.62327
   C        2.70749        -1.64659        -0.56547
   S        2.89903        -2.51501         0.91952
   C        3.91555        -1.24171         1.52360
   N        4.46305        -1.43374         2.79250
   O        4.19532        -2.49420         3.33777
   O        5.16255        -0.55434         3.25633
   C        4.07537        -0.20978         0.63824
   C        3.36009        -0.40242        -0.55644
   C        3.34855         0.55122        -1.63953
   C        2.27643         0.79281        -2.42976
   C        2.25669         1.63410        -3.56475
   C        1.14298         1.75874        -4.34702
   C        0.96727         2.51411        -5.53662
   C       -0.26831         2.40982        -6.09384
   C       -1.15285         1.56667        -5.37782
   S       -0.35116         0.90717        -3.97411
   C       -2.47617         1.28115        -5.61729
   C       -3.34083         1.80676        -6.60568
   C       -4.64010         1.43478        -6.46855
   C       -4.88522         0.57678        -5.35920
   S       -3.36587         0.20574        -4.54778
   C       -6.05580         0.13456        -4.82941
   N       -7.29785         0.46488        -5.30933
   C       -8.42350         0.53470        -4.55568
   S       -9.96341         0.36703        -5.34130
   C      -10.75225         0.53745        -3.80302
   N      -12.15029         0.50573        -3.78652
   O      -12.70692         0.61554        -2.71005
   O      -12.70448         0.36870        -4.86475
   C       -9.88197         0.71150        -2.76388
   C       -8.53148         0.72811        -3.16693
   C       -7.42082         1.01414        -2.30027
   C       -7.47659         1.11939        -0.96075
   C       -6.31461         1.37382        -0.13856
   C       -5.00974         0.83941        -0.58683
   C       -4.88954        -0.47339        -1.04760
   C       -3.65774        -1.02346        -1.37774
   C       -2.49951        -0.26496        -1.26078
   C       -2.59041         1.05465        -0.83410
   C       -3.83345         1.58704        -0.50115
   F       -3.88813         2.85832        -0.09839
   F       -1.48950         1.79825        -0.73267
   F       -1.31256        -0.81362        -1.54615
   F       -3.57861        -2.28601        -1.80021
   F       -5.96999        -1.25076        -1.14913
   C       -6.36959         1.96087         1.07984
   C       -7.53725         2.57194         1.68685
   C       -7.72256         2.45718         3.07145
   C       -8.79868         3.03519         3.72859
   C       -9.73019         3.77638         3.00362
   C       -9.55704         3.93516         1.63160
   C       -8.47502         3.34245         0.99061
   F       -8.31392         3.57941        -0.31622
   F      -10.42389         4.66744         0.93173
   F      -10.76595         4.33967         3.62006
   F       -8.94340         2.88788         5.04500
   F       -6.83720         1.74831         3.77904
   H        1.32887        -5.43407        -1.63157
   H        1.87242        -1.42527        -2.35179
   H        4.67425         0.65580         0.85588
   H        4.26174         1.11016        -1.78949
   H        1.31969         0.34569        -2.18223
   H        3.15408         2.16502        -3.84701
   H        1.76821         3.10851        -5.93920
   H       -0.57213         2.90952        -6.99604
   H       -2.97822         2.46659        -7.37322
   H       -5.43131         1.76513        -7.11807
   H       -6.04873        -0.50472        -3.95995
   H       -7.38611         0.68307        -6.29316
   H      -10.22573         0.85285        -1.75638
   H       -6.47442         1.20566        -2.78628
   H       -8.41281         1.00423        -0.43620
   H       -5.48995         1.96100         1.70810
*
