100
 SCF done       -191.266073131266          0.000795084648
C          -7.99315505627329    0.30117599093037   -3.23729956297128
C          -8.47006632089730    1.52440765706581   -2.80115971018825
C          -9.72133634918809    1.95210659929972   -3.25459872984743
C         -10.22722109873632    3.20159608450078   -2.82036075736057
N         -10.63093759945208    4.21286963752227   -2.46577973093116
C         -10.48765456173668    1.16528809683626   -4.13374467220361
C         -11.75119948106660    1.62249275411970   -4.57615094194917
N         -12.77682276876763    1.97216618869606   -4.94764877269418
C         -10.00112553342946   -0.06925925473954   -4.57098752886164
C          -8.76686170396442   -0.47798834265332   -4.11754353419159
C          -8.03781618200120   -1.73158957750003   -4.43305658422125
O          -8.43211919535324   -2.61935163267080   -5.16362084448253
C          -6.77710774824602   -1.65250663427174   -3.67861726969560
C          -6.74587991801566   -0.41663838589610   -2.95020431609881
C          -5.74726470810601    0.04659719857348   -2.12159310457388
C          -5.79252982531358    1.27907880078669   -1.44092915207177
N          -5.76723694651931    2.26960205147811   -0.86001803456260
C          -4.54525216059014   -0.62703246480301   -1.82847895490190
N          -3.54260366425792   -1.10577171502755   -1.53410916262772
C          -5.79492781170016   -2.63475288034879   -3.68819132646825
C          -5.86152408277020   -3.81381581444555   -4.40787515225577
C          -4.85984139390044   -4.77921489105108   -4.37830993806979
C          -4.84871126326933   -6.00253601758031   -5.06576883678465
C          -3.72958538270192   -6.76416224477716   -4.82914430275540
C          -2.82268179560503   -6.16294711554425   -3.94790574471780
S          -3.40447582335410   -4.60911227227407   -3.42380264226861
C          -1.60478291496513   -6.68044950858579   -3.48211291886477
C          -1.02595682298519   -7.91691639770579   -3.77414592575093
C           0.16706475805704   -8.13238407477105   -3.11622837338554
C           0.55967511684082   -7.07339831780383   -2.29709992654994
S          -0.60825403929763   -5.78162541459929   -2.37245772685555
C           1.70268704846663   -7.01550217462573   -1.48307164880298
C           2.04762455595750   -5.94290612252955   -0.71242847365522
C           3.15166756824381   -5.89637729550263    0.15424155144014
C           3.53987894618999   -4.82162232191301    0.95090259936439
C           4.64215487377440   -5.08119653390291    1.74183098511602
C           5.14482878098375   -6.37095663210579    1.58602807295911
S           4.21750559735668   -7.25427932277309    0.40782209278066
C           6.21935486432450   -6.96285606089702    2.27676594763693
C           7.00106837440661   -6.39403206869235    3.28051110935662
C           7.94614770843792   -7.25634746791602    3.80010090951519
C           7.93268413585063   -8.51991447424376    3.21184381924877
S           6.70364216231563   -8.60740787396642    1.97626736190440
C           8.75521686038802   -9.60501544378817    3.55160555621763
C           8.74849709531648  -10.83034534798247    2.94803164974366
C           9.56859896908479  -11.89935276340198    3.34587799925322
C           9.67940167613955  -13.16092409588126    2.76118328122742
C          10.58297178318168  -13.99607433388983    3.38992446377712
C          11.19787442077422  -13.41158628490286    4.49565903352042
S          10.62532992970676  -11.78019578964329    4.72657694329131
C          12.16627250918873  -13.92313164036837    5.37167085532386
C          12.89087532877910  -15.11736138543893    5.35271144443184
C          13.82477195455789  -15.20395442848250    6.36125055350115
C          13.88052184439524  -14.07986179238884    7.20257772688250
S          12.67819165357619  -12.92555592037008    6.69974077981528
C          14.68034152584685  -13.92890039588722    8.33935979094404
C          14.74828282519654  -12.84693842449107    9.19939674825351
C          14.28735996739443  -11.54186668704452    9.01926404405555
C          13.77779260720772  -10.76784387563805   10.16774573204076
O          13.90094891088707  -11.01124907538619   11.34737078786509
C          12.99628385475632   -9.65237755785929    9.55757017536220
C          12.12859157480149   -8.76430977375952   10.15267326162630
C          11.38014089717494   -7.91869193246562    9.32548899541917
C          11.52778702208182   -7.98229214525198    7.92797327582431
C          12.45451495534502   -8.84770795577990    7.33824930933900
C          13.18471636741526   -9.67929818787252    8.16317495529140
C          14.11943144033125  -10.75681673231328    7.84091931515279
C          14.79088175955714  -10.89174690317955    6.64307565894764
C          15.75555224172655  -11.88950332961910    6.41707707523699
N          16.54459192977017  -12.69487221537864    6.19881624506031
C          14.60350457766286  -10.03755744054183    5.54326072666440
N          14.45529649705637   -9.37864727911491    4.61352032435383
C          10.69214505422855   -7.21650694783544    7.08411663858911
N          10.00185055546212   -6.64897167985471    6.36617830380428
C          10.44680747415068   -7.01727133385902    9.88780148546897
N           9.69095146412129   -6.28849000994067   10.34653534232217
H          -7.91420554028198    2.15641285340594   -2.12732205874481
H         -10.57535990226904   -0.68542652721010   -5.24614898429111
H          -4.90729138123964   -2.47278948376881   -3.08952226039240
H          -6.72801278165645   -4.01091826975376   -5.02278620840505
H          -5.65763038680073   -6.29533446711886   -5.71082383683986
H          -3.55404309342634   -7.72924146939864   -5.26868211667817
H          -1.47987073525569   -8.62547309733093   -4.44258910586313
H           0.75406971509075   -9.02858591829843   -3.21127131985908
H           2.33235585366877   -7.89652766934548   -1.47244509971978
H           1.42953805506853   -5.05419821001939   -0.74457684295581
H           3.01304833486781   -3.88419655794186    0.94095553908744
H           5.07498157782114   -4.36858138062132    2.41954807507280
H           6.86750230815179   -5.38274042960745    3.61763869111272
H           8.63142157528464   -6.99612702438786    4.58825455830343
H           9.44423859469706   -9.42899797963486    4.36893507452737
H           8.08394416879148  -11.00900359525373    2.11215034934469
H           9.10869591160006  -13.43872899260047    1.89276082659416
H          10.79834151736985  -15.00081368186420    3.07417851669666
H          12.73495745768508  -15.87660889850574    4.60782988817571
H          14.48511061704687  -16.04137594422616    6.49864660288132
H          15.23360945177082  -14.81495696518657    8.62288838266350
H          15.12121562028619  -13.05000044793756   10.19822527587595
H          12.00442282149045   -8.73785999844731   11.22458683256163
H          12.55027037420117   -8.87551648909997    6.26442059481985
