136
 SCF done       -277.540415614392          0.000677420276
C           2.20549699110783   -1.74731972914448   -3.56243647316275
C           3.09436372977916   -0.70782666758532   -3.78294033421925
C           3.38178854710250   -0.34537902396990   -5.10040364687125
C           4.29026782125062    0.71404068794701   -5.34687339602172
N           5.02544696244815    1.56996206036259   -5.54014031595849
C           2.78814001764125   -1.01181016077159   -6.18961120744932
C           3.10228022272855   -0.62229529913545   -7.51383869874691
N           3.34422659783528   -0.32303868782858   -8.59230790516919
C           1.89187586659671   -2.05742491453350   -5.96379977926508
C           1.61785641916386   -2.40587165353253   -4.65868368799852
C           0.71721666366630   -3.47157852576830   -4.16790944455857
O           0.05743820137871   -4.21806936002962   -4.86123248335320
C           0.80390906704434   -3.42686327853672   -2.70031645037219
C           1.71107077152588   -2.35671185674772   -2.32612917187790
C           2.05916637482178   -1.95747635200298   -1.06264880443649
C           2.95080455671253   -0.89843076398811   -0.78354326921241
N           3.66766391566661   -0.05185093160438   -0.49045342292961
C           1.59066638082591   -2.52306998383656    0.14317336237142
N           1.25913579047839   -2.91965897955706    1.16849921592321
C           0.16046838094349   -4.26606699190991   -1.82933017847385
C          -0.72561886362028   -5.33254903098837   -2.07003831654188
C          -1.23423776010885   -6.10003397002575   -1.03403590472980
C          -2.09017097916496   -7.12817969697234   -1.44786183987953
C          -2.78835462390709   -8.06066599413976   -0.63862604373937
C          -2.57037672276675   -8.12359815724913    0.78900471541803
C          -1.38464416388557   -8.02057404463154    1.46274460272878
C          -1.53907612581238   -8.14601394722229    2.85890099292859
C          -2.82895614328851   -8.33656305069630    3.26831799645685
S          -3.88796858060747   -8.37682722465186    1.90170094900152
C          -3.35198774872336   -8.48892504785484    4.64818510277116
Cl         -0.20325076292473   -8.06682965127879    3.94213469579533
C          -3.65996911286870   -8.91094596537445   -1.30010103448311
C          -3.84207455511835   -8.90541006125706   -2.70993444520863
C          -3.14699886073983   -7.97889362264050   -3.51442922470196
C          -2.27061724041289   -7.11720078208790   -2.85777469246779
S          -1.32463124001019   -5.87619290650615   -3.62359876046733
C          -3.34903903006482   -7.88096084268835   -4.94473140567160
C          -2.43255400828006   -7.56794265680283   -5.90845995989380
C          -3.00121882146425   -7.47660537387245   -7.19694362321695
C          -4.34706605178928   -7.70016685558805   -7.23987926119290
S          -4.93699330922376   -8.04935858738758   -5.65145009931896
C          -5.26078805191141   -7.67196483532257   -8.40910372911477
Cl         -2.06044187220219   -7.10763982730258   -8.58940120850597
C          -4.71116719814002   -9.93750030303785   -3.12614135669273
C          -5.20157077993714  -10.69374996456681   -2.09744397798668
S          -4.60768382447916  -10.16266490580704   -0.54036174527763
C          -6.07575431476009  -11.80966323448642   -2.18845564424682
C          -6.63612833331179  -12.53005094028559   -1.15210179735321
C          -7.43156578308061  -13.57880802828867   -1.61656597769546
C          -7.46617572972322  -13.65615660148890   -3.01814930762568
S          -6.53831484270216  -12.43377683317558   -3.76412407684053
C          -8.27488738517345  -14.76083289209187   -3.39066127299561
C          -8.76095743203404  -15.37524030145415   -2.22528043538594
C          -8.24820821688990  -14.65281910188024   -1.07080446883565
C          -8.47741591770976  -14.92801466222283    0.24449064431116
C          -7.91404445009488  -14.15425179332246    1.28173127758743
N          -7.45598405096476  -13.52942541176076    2.12688041209932
C          -9.29033662759947  -16.00665535231319    0.65427813255609
N          -9.94823238052967  -16.88430535125984    0.98745400776268
C          -9.56201459596229  -16.48692781675062   -2.49330522864049
C          -9.67744620988213  -16.72487120524957   -3.84826148647620
S          -8.79111249613663  -15.55163919796645   -4.81120781695274
C         -10.38448888832429  -17.77677914722723   -4.49107233964810
C         -10.40912635321944  -18.06646862049917   -5.82716798654123
C         -11.18897048099745  -19.19958700885257   -6.14884674256329
C         -11.40798040303823  -19.75896801129574   -7.42525827985907
C         -10.75544784135575  -19.22008582126880   -8.60162830282227
C          -9.45628224428903  -18.81765807414623   -8.72833069667602
C          -9.15677224039739  -18.34845418169671  -10.02526200405095
C         -10.20961691193210  -18.37985688947787  -10.89345274232545
S         -11.61277897225615  -19.01508450493063  -10.10394241037490
C         -10.25073266663038  -17.97083181875019  -12.31959928094204
Cl         -7.58728316497765  -17.78427334696466  -10.45705980596830
C         -12.25420935069168  -20.85876954353303   -7.48006841323554
C         -12.83334204381315  -21.44878069904549   -6.32368094475540
C         -12.65161536258415  -20.86403412465054   -5.04600280192643
C         -11.81582947056467  -19.75379781494616   -5.00228837163768
S         -11.36471000281305  -18.88549736184368   -3.55821791850160
C         -13.37288491153904  -21.31037254371657   -3.87424265484093
C         -13.91103272097650  -20.51538090484865   -2.89808169834058
C         -14.62924160006784  -21.23922992738184   -1.92506006111873
C         -14.64457247668252  -22.59135082729999   -2.12039369202123
S         -13.74594010779358  -22.98409837353230   -3.54427432394327
C         -15.34488453651144  -23.64012349643692   -1.34427008047865
Cl        -15.42690938116059  -20.47078175731300   -0.61064408016482
C         -13.60813682773772  -22.57165549445975   -6.65018990361796
C         -13.68414548914599  -22.83896682557642   -7.99695988596894
S         -12.71201029137658  -21.71000635061227   -8.92406497379516
C         -14.36267166632654  -23.88422708955142   -8.65676060312417
C         -15.26065767936696  -24.78925570006928   -8.16456766118035
C         -15.48325933115788  -26.04047343155009   -8.93734040952470
O         -15.17190941086858  -26.25812034257017  -10.08322950768011
C         -16.11332351039309  -26.97985016697784   -7.97859555553272
C         -16.42141983979163  -28.31154723924985   -8.15538378562271
C         -16.97911223260248  -29.00667045789948   -7.08030500712149
C         -17.20892789906753  -28.34994950818075   -5.85637430448749
C         -16.90459669632968  -26.99694108254110   -5.69264674885126
C         -16.35807390722025  -26.31113462209773   -6.76317479741879
C         -15.98032908573148  -24.90430040847215   -6.91620879829947
C         -16.44896285858168  -23.88640130993867   -6.12481299409186
C         -16.35281194849283  -22.52305448556119   -6.47536319593269
N         -16.32777292550614  -21.40754285207533   -6.74161488636620
C         -17.09376964040166  -24.07608978791378   -4.88774582654997
N         -17.56362268860714  -24.17160460164347   -3.84406154286240
C         -17.75736593569487  -29.07352452984702   -4.76839739067519
N         -18.19607242091843  -29.64745937180910   -3.88034579993238
C         -17.30943251841971  -30.37638086979749   -7.21845551781144
N         -17.56960128012651  -31.48405686064385   -7.34702897212128
H           3.57101488905000   -0.17236615747993   -2.97770596296411
H           1.42655160940264   -2.58023927331857   -6.78559953610861
H           0.35430214970517   -4.11400385824416   -0.77436646090127
H          -1.00267503959901   -5.89202555111260   -0.00489595007173
H          -0.42785851834762   -7.91203932868877    0.98647117010052
H          -2.52475172902195   -8.60942793891093    5.34318258060455
H          -4.00734278198208   -9.35552780718314    4.71592731813296
H          -3.92743266907789   -7.60981746455171    4.93911766845002
H          -1.38258841177226   -7.43509175582320   -5.72759691473611
H          -4.68766253733122   -7.49457268320765   -9.31555427990579
H          -6.00062307773445   -6.87923312558733   -8.29885405921164
H          -5.79441287151849   -8.61687987924956   -8.50394567895218
H          -4.96012903221155  -10.13624348513350   -4.15236174761489
H          -6.46257826756186  -12.28813894462462   -0.11893636829275
H         -10.03729090272244  -17.10632942567920   -1.75399144516510
H          -9.89366142579567  -17.47035707785357   -6.55779397803986
H          -8.72132287099486  -18.89493304612351   -7.94860503305979
H          -9.33788109561260  -17.43910506732660  -12.57651317553311
H         -11.10685596357946  -17.32594814352689  -12.50972181509046
H         -10.33962812096344  -18.84487930028329  -12.96511135955805
H         -13.85133901929398  -19.44328565892102   -2.89193273951425
H         -15.61313210754858  -23.25666232623029   -0.36313529745363
H         -14.72043952986762  -24.52418844576163   -1.23116490746450
H         -16.25948664155694  -23.93547992834783   -1.86492796646051
H         -14.05000582334542  -23.21019550156818   -5.91171494460742
H         -14.07710282195027  -24.05447300136318   -9.69048985360644
H         -16.23555102665722  -28.80312235636275   -9.09818063519239
H         -17.09080623314579  -26.52600883772903   -4.74036821986841
