124
 SCF done       -245.250176323527          0.000518686945
C           4.48559482178356   -4.12769524782509   -3.02489546660326
C           4.94801583413082   -3.37292496415901   -1.94482462042799
N           6.16428724520370   -2.64502305838037   -2.15078249134429
O           6.43569629161425   -1.73000991277354   -1.39222158800389
O           6.86798983180885   -2.97618462581856   -3.08235747374295
C           4.24277052870507   -3.35907586029538   -0.73182711043752
C           4.66961663171592   -2.56765725928389    0.48710414818441
O           4.41682375276046   -1.19530708913556    0.35154270416756
C           3.08380144450454   -4.11352434985078   -0.66014378375334
C           2.60008017062178   -4.86508732131503   -1.73374480312974
C           3.32770575829566   -4.85843892535144   -2.93155252985783
C           1.37488806567033   -5.61797101410912   -1.60525183896865
C           0.80116105019445   -6.45718423560228   -2.51542695816423
C          -0.42123884017778   -7.02827062292665   -2.08624420386602
C          -1.23746705129076   -7.95095005306331   -2.77306466030527
C          -0.94993761359173   -8.41046974987665   -4.11644968535455
C          -1.14050595604619   -9.66194950085946   -4.62923576327859
C          -0.81477591693727   -9.74834582580853   -5.99997762023850
C          -0.38638517146538   -8.57779908986715   -6.55495987381735
S          -0.37157468231149   -7.32883869907431   -5.35699838953325
C           0.02139674013242   -8.30427157532256   -7.95565952292908
Cl         -0.95213721145716  -11.21910341416852   -6.88447159254335
C          -2.36637242680625   -8.39720671317588   -2.09481838504618
C          -2.71525039032964   -7.97262588812932   -0.78800202974412
C          -1.89538141292573   -7.05677119579667   -0.09829428118486
C          -0.76959107416183   -6.60316896193565   -0.78096164746330
S           0.41448798396125   -5.50145638950543   -0.14458964442954
C          -2.18609433436609   -6.60923388612519    1.24778602581345
C          -1.99874317191242   -5.36386236026423    1.77755575248133
C          -2.34648260270767   -5.29220405386654    3.14357711873932
C          -2.78592620559821   -6.46848462536205    3.67875198894820
S          -2.78247089199297   -7.70428311848712    2.46842899186048
C          -3.23300828703055   -6.75597438568303    5.06408433860085
Cl         -2.21924886505940   -3.83109131908254    4.04575216981195
C          -3.94851063270002   -8.52278138082405   -0.36627623937074
C          -4.52975660145183   -9.34365141589036   -1.29118007537129
S          -3.56559226037735   -9.48097254109231   -2.74501449503708
C          -5.76496011430937  -10.03992106569243   -1.16510871366559
C          -6.55987825901515  -10.12699022993827   -0.03850941701830
C          -7.71120866100631  -10.88081065107253   -0.27089233318428
C          -7.79044302259746  -11.36790808675643   -1.58517095733741
S          -6.44760180108463  -10.90525610159753   -2.53038536671165
C          -8.99630478825381  -12.10629428850025   -1.72089061727430
C          -9.67277618887315  -12.08822894134526   -0.49073328304183
C          -8.88881894713170  -11.31806672709082    0.46185608015972
C          -9.19504520889320  -11.05345800829667    1.76474445930077
C          -8.35002881126305  -10.28314947816644    2.59065164495605
N          -7.66340558865487   -9.65745405929456    3.26313034573739
C         -10.37933112370578  -11.52785385890279    2.36668212455690
N         -11.34305179380802  -11.91301122878633    2.85427678533151
C         -10.88237869309341  -12.78481144645118   -0.52491114255645
C         -11.13082039996890  -13.32529514464047   -1.77173947436300
S          -9.84867554936588  -12.97346131081614   -2.91721038164221
C         -12.26781709799820  -14.07980518744559   -2.17886448096973
C         -13.32328991862252  -14.48207192247290   -1.40973352864726
C         -14.30664420469316  -15.20323627417927   -2.12889329139583
C         -15.49814471499231  -15.76912244368180   -1.63333450754501
C         -15.80192758228811  -15.74795792380936   -0.21717111395242
C         -14.95096394193024  -15.98712968467925    0.82390809963181
C         -15.58462300933093  -15.88303214070630    2.08102849072414
C         -16.90949880076434  -15.56096809486062    2.01898597437890
S         -17.40324164498183  -15.38965093573323    0.36860157394673
C         -17.86945146541206  -15.35564614116915    3.13222619917817
Cl        -14.74044711568420  -16.14657661915378    3.55897416801777
C         -16.33975509565583  -16.35855213721295   -2.57055173303622
C         -16.02234753366745  -16.46154666601952   -3.94722796847726
C         -14.80435649737630  -15.94484597220648   -4.43504667231770
C         -13.98808616904723  -15.30964953269047   -3.50554244581774
S         -12.44685291099711  -14.57445425251438   -3.84947750940823
C         -14.39976677262109  -16.07105548655163   -5.82052870215248
C         -13.73850268272620  -15.15486460499280   -6.58841268272617
C         -13.44815237909248  -15.63529128755178   -7.88293085297554
C         -13.86723637399590  -16.91238491368362   -8.12004677516521
S         -14.65055766871530  -17.54702321192642   -6.71519235673221
C         -13.71255881855445  -17.72634127988301   -9.35198060704082
Cl        -12.63451599261283  -14.67818115366429   -9.06025752251900
C         -17.05654231666148  -17.09638854652206   -4.67701274589319
C         -18.11308807664315  -17.49440146500427   -3.91154452730005
S         -17.87672197729428  -17.09028931419863   -2.22296337276866
C         -19.32437545183478  -18.15535572444144   -4.33779689593855
C         -20.38123187361124  -18.35490613329433   -3.44098728298028
C         -21.53145374773196  -18.97629070402748   -3.85862032731781
C         -21.66859947640176  -19.41892207224128   -5.17601185495007
C         -20.62131454483501  -19.23613894411844   -6.09376446931543
C         -19.46944159687978  -18.60849831869838   -5.65041595913017
C         -20.69447080176678  -19.68808870623267   -7.52507992156010
O         -19.50106332217342  -19.36319802811013   -8.20449627507261
N         -22.90469159131465  -20.05274136868487   -5.52191330592206
O         -23.75132908292940  -20.15420493260050   -4.65597063194457
O         -23.05425905718609  -20.45861719433694   -6.66071912677112
H           5.05773339394431   -4.11178682543789   -3.94039467234426
H           5.73274132198018   -2.75164822878119    0.69738999090918
H           4.08221577286353   -2.89919936199206    1.34698168784626
H           5.08899968570879   -0.83367635405875   -0.24650699916187
H           2.52827795585532   -4.11629760348680    0.26619484126904
H           2.98017782432111   -5.41657106078471   -3.78491733917071
H           1.24225658075461   -6.68329882345908   -3.46724287174834
H          -1.46410693688474  -10.50857024327365   -4.05311261034432
H           0.10332528506091   -9.24073921525576   -8.50174121684704
H           0.97965901409582   -7.78809911262044   -7.98445538580656
H          -0.71488667793213   -7.67260088379089   -8.45331497926607
H          -1.66562789603742   -4.51094817269562    1.21631306549649
H          -3.17876864328618   -5.84969543908354    5.66150573393638
H          -2.60408865802724   -7.51941154196896    5.52067409899663
H          -4.25871154218508   -7.12290563378809    5.06700584556528
H          -4.40588342514899   -8.29950728812155    0.57814474192475
H          -6.30380132180289   -9.66970763739139    0.89876351220541
H         -11.55321493544542  -12.88999704545223    0.30718661422094
H         -13.41092053091129  -14.24997521067039   -0.36525332009271
H         -13.92197534572306  -16.27301460587787    0.70696561149610
H         -17.41029452680726  -15.65388786162167    4.07145313639651
H         -18.77282520600219  -15.94207120015232    2.97286289120140
H         -18.15782600212036  -14.30659384644067    3.20137228257276
H         -13.49679792990284  -14.15848412057227   -6.26880989775247
H         -13.57285548198759  -17.07233354028220  -10.20988108895458
H         -14.58930273345835  -18.35014279649365   -9.51161787050258
H         -12.84193596549896  -18.37898740921506   -9.27283513596316
H         -17.02146804877732  -17.22850481069733   -5.74152353880975
H         -20.28930126333750  -18.01433340305372   -2.42092596682976
H         -22.35503566703694  -19.13504073130306   -3.17926699879859
H         -18.67080526123189  -18.48442956817921   -6.36136305074741
H         -21.55831599590600  -19.20904295274111   -8.00844815691021
H         -20.87234895282891  -20.77294930037711   -7.54993296938138
H         -19.58236217672483  -19.66901759399345   -9.11303126034138
