82
 SCF done       -169.980546250487          0.000839443913
C          -2.47083585508455   -0.35824351744972    0.89563265900263
C          -1.38362715817254   -0.45010689856227    0.03666601329259
C          -0.57626797296887   -1.64960364064194   -0.06675276022970
N           0.50188781704659   -1.64200912248491   -0.85408471011347
C           0.79239451271883   -0.57500217312308   -1.56181108184548
C          -0.04353842903246    0.59029081062142   -1.50517181337367
N          -1.08267402176000    0.63097254279320   -0.71763469175030
C           0.27006017439331    1.71320698378623   -2.31449987132992
N           0.56356377184669    2.59318345584797   -2.98583437518763
C           1.92827936320484   -0.60820773001611   -2.40568954038397
N           2.82742140042580   -0.62214393792788   -3.11669568143676
C          -0.88039172084496   -2.81545304791520    0.69031935922280
C          -1.97424131885305   -2.67819799541280    1.57864442092243
C          -2.76204937000772   -1.47027444838047    1.67541119316428
N          -3.74097410818265   -1.59275489542917    2.58115288955477
S          -3.67524125735677   -3.05280659559596    3.23088184893238
N          -2.41483619251345   -3.61909623548532    2.41175306211340
C          -0.15321463654711   -4.03576551200343    0.67069704016941
S          -0.38189761623945   -5.14390530280503    2.00328700281716
C           0.84617690750824   -6.23852578085554    1.43593424971950
C           1.35595196044472   -5.78261006082241    0.22896794464407
C           0.79452167655306   -4.55729263411018   -0.22591184297374
C           1.30933002312889   -4.20204799466613   -1.49317465383716
C           2.24374752506396   -5.08222832834070   -1.94869407724135
C           3.03816092507496   -4.98261621716359   -3.17953890926885
O           3.89500493297937   -5.77099119373263   -3.49562997754171
O           2.69372302631886   -3.89452965544413   -3.87289166491902
C           3.43937672221931   -3.59040104483412   -5.04530831121583
S           2.53384584567683   -6.41847499662442   -0.87084929180699
C           1.18746895073688   -7.39420680381571    2.18881413255258
C           2.22121955921432   -8.27049556104436    1.86942964727153
C           2.55939256665132   -9.37389170754816    2.64957309740228
C           1.89501632344747   -9.72371658503502    3.82109784450890
C           0.81115132542551   -8.86971665487601    4.17107206942033
C           0.47068643672423   -7.71941148338701    3.37289898783501
N          -0.55402264822484   -7.13014227059317    3.95111805875692
O          -0.84508229411322   -7.84872360023838    5.03062343284156
N          -0.03413911277804   -8.90132067107067    5.18299475303387
C           2.25145813497566  -10.82814536888864    4.64741437118102
N           1.52099109734865  -11.13501628776540    5.77249297305231
C           2.09464401727347  -12.20567994162585    6.37634016415030
C           1.99023365331974  -13.08364329109217    7.44116055173799
C           3.08672985653450  -13.96321554767801    7.32707018953810
N           3.83434303410670  -13.63159347101604    6.21299031726024
C           3.23517654473068  -12.58305524331180    5.60242328446018
C           3.32505888582789  -11.72304667663911    4.51642041677122
C           3.41967232194075  -15.03068536733674    8.18204912146114
C           4.63446310311210  -15.66111456190873    8.16132767360519
C           4.90852920642850  -16.84389182362410    8.85451875586553
C           6.03781117201316  -17.62305545896362    8.78125074477832
C           6.20441852297751  -18.69392099860569    9.79351024747542
O           5.37633609020547  -19.07450918103204   10.59013767555565
C           7.59809410426769  -19.16573416541161    9.64434658434979
C           8.19777831089635  -18.49496051375197    8.56410361251728
C           7.20607117146132  -17.61286721186359    7.93592110689166
C           7.38163595661883  -17.05461243892827    6.68924452484782
C           6.45689012840866  -16.30704327553202    5.94236714844596
N           5.78299558996318  -15.67640179687029    5.25328759349368
C           8.55606903873334  -17.20459378682316    5.91867133867362
N           9.47227965555883  -17.27323605095327    5.23037011618166
C           9.53225580128940  -18.73530521941528    8.27196779564140
C          10.23421779063990  -19.64865662391928    9.04523584673452
C           9.61356957202513  -20.31440728381106   10.09286826025731
C           8.28299010613618  -20.08061384810890   10.41513128784235
Br         10.61259973062020  -21.56462002003517   11.11671990756294
H          -3.04896229627074    0.54753764298318    0.95146686431364
H           1.02335080643690   -3.33827259466913   -2.05734581572581
H           3.67062236341943   -2.52687949281912   -5.00448886336982
H           2.82797391755927   -3.80912338885572   -5.92228558377528
H           4.35259964745388   -4.18726648030030   -5.07357719458515
H           2.80166536163336   -8.08170875452510    0.98053503308992
H           3.38519750671873   -9.98619548929124    2.32513949476016
H           0.71382269994585  -10.60272498637407    6.06391729403580
H           1.26259423271439  -13.10088143992995    8.22732081157546
H           4.56991768891261  -14.21111668769309    5.82093672805727
H           4.05928321316049  -11.72401347626785    3.73757365639104
H           2.65056944516964  -15.37265050383511    8.86113726806703
H           5.42559160580604  -15.22345398485165    7.57723821702442
H           4.16210546154171  -17.20112692224923    9.55702706558313
H          10.04190149810029  -18.22518663993799    7.47169668263200
H          11.27390174289769  -19.84284441663424    8.83085562840780
H           7.79654447341037  -20.58684642525215   11.23436465029350
