90
 SCF done       -186.089048667264          0.000420263167
C          12.32243854118371  -21.07482656236745   -4.76333012594286
C          12.32175044810899  -19.84283964719829   -4.12140227778713
C          11.09482154131569  -19.20842902721898   -3.70834592110030
N          11.13839846726245  -18.01933355742837   -3.10355796865312
C          12.30337149223457  -17.44495637076277   -2.88477121544962
C          13.52129506475238  -18.08318226666388   -3.28479081615306
N          13.51048774005858  -19.24351169791242   -3.88666409460398
C          14.76351164521251  -17.44734420184579   -3.02568051644018
N          15.74611143382242  -16.90555044668976   -2.79686668345458
C          12.34067260613835  -16.18413000495882   -2.24517699892230
N          12.40962204131712  -15.16398575567892   -1.72675814903990
C           9.80785892419386  -19.81725491769663   -3.91433851545578
C           9.84035160553937  -21.07687503183076   -4.57503055604561
C          11.09336286832986  -21.68044028176114   -4.99333630296762
N          10.90668925115948  -22.85284776265220   -5.60787952673559
S           9.33823016676467  -23.16803914001954   -5.66551045205685
N           8.80837357445673  -21.84326931581934   -4.91342046880219
C           8.69704179372871  -19.08825747496985   -3.45873348725127
C           7.34478922843155  -19.36654509648916   -3.38520923361670
C           6.58012533287873  -20.50765941444775   -3.69239695941345
C           5.24717594278064  -20.37657358430567   -3.41952538066552
C           4.88935393795447  -19.12181570147624   -2.89056895606620
S           6.29317567146518  -18.10749702351929   -2.74310097730281
C           3.60813709623710  -18.71296656000169   -2.52154118993901
C           2.43452375820784  -19.48393304066465   -2.56222495670510
C           1.32329177728587  -18.81677073239445   -2.12578738125443
C           1.56591815024367  -17.48668718223199   -1.72827028495765
S           3.26464459604881  -17.11125267051618   -1.92082549875734
C           0.58284435425469  -16.63156844295087   -1.25918212392568
C           0.68106638091664  -15.30233058901795   -0.86763768561821
C           1.77668432624558  -14.42597047481955   -0.84484082243312
C           1.43264406956590  -13.16733548596719   -0.39880290250563
C           0.05375280399777  -13.04374058860579   -0.05971818902429
S          -0.79988685836050  -14.50543455669978   -0.30522803005988
C          -0.19253873663184  -11.74335929160319    0.36997447853022
C           1.02498482421127  -11.00381969222607    0.31333510018318
C           2.07551635298953  -11.88395112699751   -0.17125256958578
C           3.38834380097380  -11.56594443088393   -0.37627142063857
C           3.88224444141475  -10.27142335258225   -0.11726962839056
N           4.26718680504878   -9.21227423265988    0.09726390639663
C           4.31935351993311  -12.50719608326805   -0.86194193490541
N           5.07118918771760  -13.27600077258098   -1.26004396540454
C           0.88614165525091   -9.69227051102842    0.71165908158106
C          -0.42917969798179   -9.37651834413291    1.08585987930749
S          -1.49592931725740  -10.78752316144453    0.92673533491616
C          -1.01494570176243   -8.19908343152474    1.53397077688165
C          -0.46542655789571   -6.94169803497966    1.73694202371133
C           0.83162315665468   -6.42028295192034    1.56997032700992
C           0.93707209520087   -5.09063627608529    1.88372818011930
C          -0.26887853527597   -4.50804972455268    2.31036598796689
S          -1.54673267171817   -5.68323605579099    2.30927772567334
C          -0.51241005609545   -3.18894854521763    2.69584901163457
C           0.38929168790739   -2.11651913743483    2.75656171475959
C          -0.20020086173470   -0.95652912015958    3.17817346382293
C          -1.58101961594232   -1.06570207723427    3.46512413598285
S          -2.11996308760514   -2.69980899026497    3.18154923083034
C          -2.32643870148338    0.01576635899307    3.90438899611399
C          -3.67437261990309    0.15959305645177    4.24910194104349
C          -4.67320682187568   -0.85722548202630    4.22206516865200
C          -6.04388653675345   -0.58518970225782    4.60663720394245
N          -6.95917330140152   -1.57993163795545    4.56737011659824
C          -6.58354719630339   -2.77069196317089    4.17909303817387
C          -5.23379205724701   -3.04363599886796    3.79667286557265
N          -4.32952990491465   -2.07803993744344    3.83305153572430
C          -4.85605480383970   -4.33661849316738    3.37964475967866
N          -4.59457805443957   -5.40341950647930    3.04614150193925
C          -7.54006184972076   -3.81940077836820    4.13561871786550
N          -8.28113020136979   -4.69124196108340    4.08944249006794
C          -6.45295501812191    0.67516104039589    5.01840850566259
C          -5.49857793187970    1.69014998910934    5.05336767009013
C          -4.12612895451815    1.44248994450710    4.67499035206610
N          -3.37678681417750    2.53391073437744    4.77646598711025
S          -4.29794910370451    3.75344992852207    5.29491006680432
N          -5.69008047553421    2.96134965608551    5.41676488917631
H          13.24587851004286  -21.53504937892903   -5.06881057590246
H           8.97875100542802  -18.11547445074713   -3.06979822950025
H           7.03776562792526  -21.38605724524966   -4.10674737716611
H           4.52431301556453  -21.15319847140635   -3.59209448175749
H           2.42773910565000  -20.50347744017808   -2.90118397201802
H           0.33800654160313  -19.24574389678834   -2.08231580334891
H          -0.40734028554749  -17.06636779357995   -1.19546112003326
H           2.76337091099563  -14.72151425996940   -1.15038223777350
H           1.68911526177501   -8.98156232442823    0.73848772503642
H          -2.07338837054264   -8.27002942836157    1.75498048898665
H           1.66393003279188   -7.00546666905855    1.22690549395674
H           1.85155048863258   -4.52956158505089    1.81376546347806
H           1.42930639539719   -2.20681589837073    2.49774491273434
H           0.32007698739827   -0.02152850658790    3.29170265244574
H          -1.76329452196870    0.93746594158178    4.00533848337742
H          -7.47673281906608    0.85135611141591    5.29921657981000
