90
 SCF done       -191.527953290117          0.000381991650
C          -0.09217260446485    2.33021327270433   -4.16054647505969
C          -1.18946418205310    1.66792051302689   -3.61588554563181
C          -1.02398691021465    0.62347115276273   -2.63334581276462
N          -2.11016736116862    0.13509079929541   -2.00666353525090
C          -3.29937660692941    0.51243831525092   -2.39164785269933
C          -3.45720681546211    1.40739674192893   -3.51450203920374
N          -2.42582424139926    1.98474643022704   -4.05467249121856
C          -4.76747736132819    1.63175192886627   -3.99840888660189
N          -5.86141823704410    1.72618202623704   -4.32728827714606
C          -4.44214462876051    0.06653152073212   -1.68765270985294
N          -5.39914243836619   -0.29236806469100   -1.16826260290427
C           0.25602825584197    0.15284933099481   -2.26387216710580
C           1.35559889302932    0.83714144921981   -2.81019627186624
C           1.17197621082080    1.93344237602126   -3.74638188543732
N           2.34976857918632    2.43346633017745   -4.14787240147900
S           3.52493348497107    1.61744418188863   -3.44167439655144
N           2.64735202765926    0.58362109405050   -2.59890863208819
C           0.41738957293570   -0.94522670937368   -1.35317793302381
N           1.40589358104044   -1.02742251992967   -0.48866855866137
C           1.15708248779379   -2.12388678636024    0.25967469569318
C          -0.09749243866052   -2.77829121323821   -0.15617035132462
C          -0.37210614673755   -3.96842878259092    0.67554989724111
O          -1.31796139781693   -4.71756758677337    0.61933776392359
C           0.78678258321795   -3.98521696469760    1.58765937421453
C           1.68999832435022   -2.84179691778256    1.30012338510939
N           2.75979742880123   -2.86120652616290    2.13124150126882
C           2.58705456954838   -3.91354870666644    2.89080393374970
C           1.37708016073668   -4.66429405449816    2.60163642489611
C          -0.56110185962352   -2.05835261252930   -1.21920592687442
C          -1.67814024303011   -2.22984157402492   -2.08346077760572
C          -2.87249626266131   -2.78646381292297   -1.73599234502161
C          -3.96595716224540   -2.63383500181794   -2.61953973222806
N          -3.80994431064569   -2.01109611101856   -3.79203297674622
C          -5.04318681236954   -1.82507817399592   -4.28309476533320
C          -6.07379241935382   -2.34127217100995   -3.36918354523620
C          -7.41181993965607   -1.94692325619266   -3.85493317951103
O          -8.49816731004986   -2.16108396369894   -3.35416850542259
C          -7.11102545585068   -1.18350466221586   -5.07246532877477
C          -5.65659333022811   -1.16651836018033   -5.32388470183180
N          -5.36665378266335   -0.43468353830835   -6.42238471477788
C          -6.52377990127849    0.02462773177041   -6.84277885239648
C          -7.65061058147679   -0.39041153838198   -6.03634963953846
C          -5.39209992143371   -2.88248587564062   -2.30125663389390
C          -5.87383952650670   -3.40206177063798   -1.06761568220676
C          -7.19128284893225   -3.33328928625819   -0.75778990409849
C          -7.75825867953672   -3.66590336468778    0.49848413719560
N          -7.21583666462872   -4.47297460338687    1.39394487829264
C          -8.13539818495276   -4.61679683033439    2.36749855263484
C          -9.36346606995942   -3.85065165291944    2.06459664059795
C         -10.36436355670832   -4.02633476165632    3.13321528726864
O         -11.47319463004716   -3.55056946304672    3.21456123932176
C          -9.66931263083229   -4.93154009379799    4.07002658800835
C          -8.31763098032414   -5.26337726135420    3.56403191117694
N          -7.67362826258894   -6.08552502835300    4.42894304477166
C          -8.51544434995711   -6.27424637605239    5.41412287766116
C          -9.77892788970148   -5.57904271064503    5.25724206347231
C          -9.12001983580511   -3.19962646750840    0.89060728373075
C          -9.90647368404403   -2.29733698801788    0.11143848640259
C          -9.36072003800472   -1.26006249710646   -0.56625937087534
C         -10.02828280084017   -0.46515206456111   -1.54707213162264
C          -9.37451530850066    0.66335406229310   -2.10135677569503
C          -9.94080253359747    1.40221606162106   -3.20898513088440
N          -9.28423177129547    2.47133760695097   -3.70924448413243
C          -8.16009359851536    2.83785539218902   -3.17013282458011
C          -7.60581931351353    2.11334546088227   -2.05077880877394
N          -8.21077011653911    1.06191426298589   -1.56880408438635
C          -6.38677232016898    2.56265271431412   -1.49104010136075
N          -5.38921491591598    2.97134423573588   -1.09978638668932
C          -7.47182373673722    3.97453948792172   -3.66908041445399
N          -6.90188052197319    4.90066664819480   -4.02714156349770
C         -11.15730363787437    1.04367314130660   -3.77373703541860
C         -11.82711095915104   -0.04190911534573   -3.22411552654670
C         -11.27775374296367   -0.79177675422757   -2.11095153750527
N         -12.08743040533532   -1.79381269269269   -1.75643962902716
S         -13.37530160725204   -1.79144151911421   -2.70386625996454
N         -13.00842197923328   -0.53576199286690   -3.61976463777808
H          -0.23379930712492    3.10727794041909   -4.89285362264936
H           3.30723485993793   -4.15777318125601    3.65235876599419
H           1.05963654369252   -5.55392344667152    3.10829358784889
H          -1.56746625742703   -1.90394473768773   -3.11037503386768
H          -3.02700344563027   -3.20908299479684   -0.75550037963385
H          -6.57250591761619    0.65348607328144   -7.71399030345616
H          -8.67216200354566   -0.10900675821248   -6.20038178938646
H          -5.16671182814772   -3.77743316584798   -0.34259299101386
H          -7.88386494731114   -2.94775971446318   -1.49354330820065
H          -8.24662823098477   -6.90346313675893    6.24499157786188
H         -10.59428411925879   -5.60341269575324    5.95272257231182
H         -10.97159415247115   -2.47965881741160    0.06745195936894
H          -8.32651718213987   -0.98614710661654   -0.39942426896590
H         -11.55998240683670    1.59675625127102   -4.60530399195387
