102
 SCF done       -217.193190022926          0.000885621533
C          -1.55345727300247    2.39945444264695    0.78492272617338
O          -1.20796874459938    1.74964396883464   -0.16595919207968
C          -0.72393267179293    2.82233420094958    1.93899671945892
C          -1.52226516443236    3.47592096433165    2.89606834926590
C          -0.96274675605815    3.94512753183943    4.07539052723525
C           0.39511512252079    3.75220448566329    4.27756140717857
C           1.20043907562673    3.10724931031998    3.33818681385464
C           0.63171273552997    2.63452754821980    2.15413211032288
F           1.39835522727854    2.02174801933367    1.26080125116947
F           2.50293632922323    2.94385508841763    3.57143836313352
F           0.95302717070102    4.19542367766185    5.40400157234756
C          -2.89970206914327    3.53515742805326    2.41257074240738
C          -3.95328464168827    4.10509775859912    3.06418514035612
C          -3.86894751166704    4.71788019433273    4.33614355592754
N          -3.86166418384054    5.22482991020341    5.36435449154165
C          -5.27606155375863    4.16864230352170    2.56662666633787
N          -6.36930280546087    4.26799096090514    2.23538901874113
C          -2.93024384156091    2.89365773982578    1.10025384184528
C          -3.97653629252925    2.69302374009706    0.28287615177608
C          -3.81405104405613    2.07290611082228   -1.04275969916725
N          -4.35454104695253    0.87115577041860   -1.20859287363961
C          -4.15538442605695    0.29640208845805   -2.38576290396082
C          -3.43595139444386    0.90556354423229   -3.39541896882406
C          -2.95423409218601    2.19775499515460   -3.14080325986150
N          -3.16192080656901    2.77234568122576   -1.95297952037445
C          -2.21797100571095    2.93809440023333   -4.13845614681087
C          -1.84252703872178    4.21732838407176   -3.95693301682655
C          -1.09786636656851    4.99470123995752   -4.89537098532856
C          -0.44100579099691    4.59028364016646   -6.02298374786161
C           0.20327841821469    5.63954505307526   -6.72047120416143
C           1.00093345310484    5.54726279810733   -7.87868636865267
C           1.21949259106679    4.29994947778622   -8.58238087776562
C           2.37027446301898    3.86484876491276   -9.17472066970349
C           2.21333776321185    2.62570526248189   -9.83225937207792
C           0.95286864483296    2.10704827912644   -9.76968500847335
S          -0.07351780621357    3.16302215263625   -8.85983854907099
C           0.43594991420383    0.84084230639407  -10.34699916852862
Cl          3.51536038938755    1.84733594783449  -10.64544685978328
C           1.56790257211823    6.73284191717169   -8.34081664319822
C           1.35001381449592    7.98746390505061   -7.71582666139651
C           0.57462860185974    8.07802418778035   -6.54094398139886
C           0.01505015300478    6.89161618942053   -6.07834557568487
S          -0.94286136214714    6.72001071941945   -4.63711549701527
C           0.39589997542540    9.34309649260580   -5.85836730489023
C           1.31318178786308   10.34284412585150   -5.68675884439610
C           0.79104735564808   11.43893295555152   -4.97000815787499
C          -0.50997648036950   11.29853504424845   -4.58230859047804
S          -1.12060657123053    9.77435396711640   -5.12021599161571
C          -1.37497113741221   12.23767983669872   -3.82554581448779
Cl          1.74668148788595   12.83847033022657   -4.62329051495570
C           1.95804885210346    9.03878159245574   -8.44179255987805
C           2.63777256282634    8.61303573846916   -9.54307381251049
S           2.55591695269275    6.89336174340464   -9.76902479833975
C           3.38066171141998    9.44297551740087  -10.45946278031817
N           3.95412775330388    8.85869566453362  -11.51358952644545
C           4.63133969021351    9.63834573847157  -12.33260493869820
C           4.74717812172437   11.00776802436208  -12.13473359968489
C           4.10616408423796   11.53164323618142  -11.00664799310568
N           3.43703944667691   10.73666709978394  -10.17329937813309
C           4.11538248634237   12.94717047324199  -10.69209058384773
C           3.44518140911873   13.41319682423161   -9.62025821721412
C           3.34820627494418   14.78064688189976   -9.24738304869296
C           2.43374517309419   15.29974723244346   -8.38697951856221
C           2.64956697016483   16.64108704332595   -7.77482957739530
O           3.43178255101760   17.48201081007457   -8.13456853887202
C           1.72940457645766   16.66966653701408   -6.61012155009518
C           0.93019090788879   15.51064202266744   -6.60607067959234
C           1.26565241049548   14.69932811952265   -7.77550622820059
C           0.50042397181052   13.68626578647228   -8.28583692216154
C          -0.62306756783197   13.14009471808673   -7.62975959865672
N          -1.52414270795747   12.63707695400637   -7.12839909811186
C           0.65268847411800   13.13836889164940   -9.58093477549550
N           0.66031245966172   12.71132379067642  -10.64542510033234
C          -0.00993908590911   15.30236475922693   -5.61188328255768
C          -0.12393295208083   16.25623738130102   -4.61237276149140
C           0.66005307372633   17.40882701649992   -4.59674961643910
C           1.59534589606091   17.62080508842757   -5.61262340672197
F           2.33468034447336   18.72335805076902   -5.59852609422606
F           0.51555889243003   18.30526597206511   -3.61957731472196
F          -1.01046380734673   16.06426935430115   -3.63288868693450
H          -1.53341573231094    4.44879653972335    4.83796042223929
H          -4.98598626339524    2.96094567262643    0.56130020731362
H          -4.59110939369028   -0.68738588204279   -2.50326560093649
H          -3.26144372320948    0.41980674460665   -4.34143804719228
H          -1.98499942016168    2.40911784346265   -5.05098494966598
H          -2.13481709332202    4.70815945677154   -3.03874759489164
H          -0.39357987262117    3.56283088632202   -6.32960384349712
H           3.30856280102225    4.38404764155558   -9.12153842098216
H           1.20314428137168    0.38213103956073  -10.96562310691532
H          -0.44760120109217    1.02890752364548  -10.95532837303265
H           0.15763313579585    0.14263385231233   -9.55754736008261
H           2.33728888522830   10.28581939688456   -6.00601990493586
H          -0.77814942198023   13.03772440830593   -3.39380564904961
H          -1.89416517846591   11.71311002270387   -3.02564306576611
H          -2.13004742838256   12.66753859972149   -4.48430021724409
H           1.87828636635918   10.07908533991343   -8.19277335473254
H           5.09202061917017    9.14525661406535  -13.17896560003481
H           5.29728389520473   11.63623984439762  -12.81538181572301
H           4.62578565220068   13.60920027209714  -11.37699770390790
H           2.94925736771249   12.67767808963235   -9.00099916547415
H           4.09728593301038   15.46910565238727   -9.62343222287075
H          -0.63903029976354   14.42957753666822   -5.57743812511331
