130
 SCF done       -259.097378478460          0.000353855271
C          -2.27387678583694    0.78031708114328    4.68511203294133
O          -2.57026979825106    0.15409047276806    3.69115443314101
C          -1.12894805752928    0.47913930673312    5.58172545953009
C          -1.07455297863333    1.42264652388797    6.62017557883985
C          -0.07896280770807    1.35349363334323    7.58011597278013
C           0.85145242598649    0.32859040554787    7.48365286532189
C           0.80801296213292   -0.61743168885292    6.46234954654735
C          -0.19687835734212   -0.53935868378273    5.49606132858918
F          -0.23559733878283   -1.44300933876860    4.52063401966318
F           1.72102124261288   -1.59138364183731    6.40655338562951
F           1.82120513482194    0.24456959736599    8.39796138309275
C          -2.18830239169471    2.35891361809059    6.45229524777752
C          -2.50016423715484    3.35882239212288    7.33881248242652
C          -1.75170486512487    3.65223195464274    8.49861988971829
N          -1.18964936256251    3.94960291421897    9.45429580992063
C          -3.61125863054554    4.22617683894845    7.26247328601640
N          -4.49299672809499    4.96144900630938    7.30070109688354
C          -2.90189178804898    1.98995712500578    5.24758653470657
C          -3.92504310300380    2.74090156704347    4.71019037467140
C          -4.76952293437301    2.51087823274617    3.61867444845975
C          -4.97479952749636    1.40652804332526    2.79029991953006
C          -5.94311130401421    1.59883266982305    1.82423401438390
C          -6.51292250768185    2.88789019228328    1.90570118367298
S          -5.85647126424746    3.82927746313577    3.17019452326048
C          -7.50561910289617    3.16993089941736    0.94336804069615
C          -7.78040342547186    2.14306973417062    0.02894487992026
Si         -6.72644612642001    0.63887245379530    0.42082364482765
C          -5.52681107431207    0.16221148994010   -0.91815583275428
C          -4.15862774453069    0.02973548328161   -0.66351383827142
C          -3.28339462122264   -0.37476178966609   -1.65434936537372
C          -3.75396424517083   -0.65585913553668   -2.92587396593949
C          -5.10598612876878   -0.53098821377153   -3.20137095030085
C          -5.97904868069878   -0.12857286095585   -2.20925640232874
C          -7.79489423960406   -0.77507072060469    1.00249132713461
C          -8.85805804558996   -0.55790177800432    1.88596426618306
C          -9.65092941266145   -1.60112470405161    2.32312741454096
C          -9.40062732871763   -2.89219902754700    1.88719813334545
C          -8.35382544194932   -3.13134044291707    1.01288773660935
C          -7.56195344250390   -2.08527963127868    0.57724175770397
C          -8.78035560391953    2.51641805936305   -0.86326499721639
C          -9.27353194224034    3.79261064874964   -0.64682823708057
S          -8.47532555015714    4.57238367841962    0.69451683223025
C         -10.31606940803182    4.44416956243227   -1.35127252861898
C         -10.89135569456337    5.67152983736809   -1.07675125545571
C         -11.93407961446088    5.96844959980598   -1.95414000870771
C         -12.14671385555878    4.96302478820947   -2.91270819247019
S         -11.06639948600377    3.65261513244054   -2.73230287812206
C         -13.24449167052068    5.33654726584777   -3.72624819799615
C         -13.73592113830930    6.57396390076117   -3.27719273604639
C         -12.91920001172940    7.01980600560208   -2.15814020799112
C         -13.05239266341742    8.17590620287200   -1.44825424420549
C         -12.19225682367465    8.50153694580350   -0.37783075066406
N         -11.49509311275566    8.76594566429949    0.49291560054325
C         -14.05814490257952    9.12221450965025   -1.73911633585689
N         -14.87629292182621    9.88968393805188   -1.97529617823252
C         -14.85350666802248    7.00612560655274   -3.99061239904264
C         -15.21226391585211    6.11307462800397   -4.98390390415841
S         -14.14248752378634    4.71760144030686   -5.04130343941619
C         -16.31783716563749    6.19505797785140   -5.86695582673510
C         -16.62806062295061    5.35178092979929   -6.92080601705680
C         -17.82259605542723    5.67102241636358   -7.56022433123435
C         -18.43588306860299    6.78364952188092   -6.96617184634791
S         -17.52839917438836    7.43510930295540   -5.65694367403353
C         -19.68261784461443    7.16388403334308   -7.50733033067457
C         -20.16132835447547    6.33686409551514   -8.54177667901163
Si        -18.87501323726448    5.04509397547908   -8.97939638170488
C         -18.23155742626221    5.47583682395402  -10.67269231876236
C         -16.90167278948508    5.82634056286075  -10.91508459525882
C         -16.47769432168412    6.19114377960966  -12.17944247661337
C         -17.37551447561374    6.22079701997930  -13.23286979539154
C         -18.69968875119813    5.87449463130732  -13.01878452418923
C         -19.11731412281091    5.50579700479678  -11.75550062835570
C         -19.41118673762152    3.27395906984259   -8.76905875669470
C         -19.39331830886273    2.38050789314374   -9.84333782836461
C         -19.79475235698564    1.06669644819788   -9.68977551151251
C         -20.22363405551810    0.61209987021991   -8.45405504427547
C         -20.24815185030862    1.47882552753762   -7.37339006536596
C         -19.84729925861499    2.79157411802792   -7.53003180621505
C         -21.35016553872041    6.81446730199505   -9.05717990069071
C         -21.80783981630936    7.98265985947233   -8.44808888943366
S         -20.72918376318576    8.46977899298786   -7.15378858906083
C         -22.96330222702801    8.72764153142810   -8.71998257786714
C         -23.75553362249032    8.68486210774697   -9.84012088759721
C         -25.15286109128393    9.16941219147687   -9.74622960191878
O         -25.64775959646561    9.79491901279990   -8.84123882281279
C         -25.81105204937912    8.66993993231063  -10.98327670853762
C         -24.85462826763898    8.04455918434193  -11.80377769457944
C         -23.54069868664725    8.16591254720687  -11.16515885252772
C         -22.34051848298629    8.03899997147153  -11.82217023230400
C         -22.19493243724701    7.54341263847713  -13.13180624742678
N         -22.00357192644903    7.10362906863623  -14.17529933315762
C         -21.10250255151506    8.44845742436230  -11.28624271643377
N         -20.07303718122355    8.80566101111899  -10.92548670428184
C         -25.22136307283436    7.46572162065796  -13.00552748585227
C         -26.55850446430407    7.52056063715770  -13.37344315703934
C         -27.51797243918138    8.14298727486633  -12.57878766711720
C         -27.13861148579613    8.72705812280426  -11.36698595252449
F         -28.05965373554642    9.31703851353092  -10.61264033554734
F         -28.79437635428993    8.17811604409387  -12.97033061543350
F         -26.93944645740599    6.95586175987817  -14.52210557900463
H           0.00838385817736    2.05581352060786    8.39198632586164
H          -4.11471206002282    3.68739117385879    5.20235798397197
H          -4.41881137363005    0.49574809980121    2.91024010841720
H          -3.78073410863834    0.24359219576155    0.32525425573239
H          -2.23101535333664   -0.47306507944613   -1.43269657720458
H          -3.07058784500916   -0.97209504932813   -3.70008706767495
H          -5.47877130265712   -0.75017761613452   -4.19148284024621
H          -7.03334858909552   -0.03803912930115   -2.42971417752356
H          -9.05975063935474    0.44721317106398    2.23006918901936
H         -10.46614437981799   -1.40948642315425    3.00561700823361
H         -10.01964625518917   -3.70864499667339    2.22865749316604
H          -8.15405945689468   -4.13624659664794    0.67079598958268
H          -6.74656657956094   -2.27825026193958   -0.10522274861543
H          -9.15801000145288    1.88323257469329   -1.64698249030645
H         -10.56253636399789    6.29761513496718   -0.26681110012824
H         -15.39332034819066    7.91803156591189   -3.80888705720998
H         -15.99583669293198    4.52710011937023   -7.20109843717183
H         -16.19636877808612    5.81536639657210  -10.09618742268688
H         -15.44439404763769    6.46085066230134  -12.34284980323349
H         -17.04677610719099    6.51625079410962  -14.21799649338329
H         -19.40826798431370    5.90192385686630  -13.83354451360412
H         -20.15234726405836    5.23584041246457  -11.59620532092481
H         -19.05699820295771    2.72836775681601  -10.80962439552910
H         -19.77276248252550    0.39492287618850  -10.53537874108618
H         -20.53707538710101   -0.41421385701078   -8.33271811328083
H         -20.58087239810838    1.12819783179165   -6.40729299812209
H         -19.86796948902859    3.46255889263411   -6.68245810317259
H         -21.90988630756065    6.30940075532709   -9.82435825671250
H         -23.32879707810226    9.37331661865412   -7.92785128200810
H         -24.52044718515280    6.97052799190242  -13.65718102990731
