118
 SCF done       -254.005088613527          0.000984485871
C          -6.02353315503541   -0.82454294823732   -1.09843448776440
O          -6.75017760216434    0.08092630162232   -1.43923941441322
C          -6.43501594503172   -2.19844853203370   -0.71158149852680
C          -5.29683751254183   -2.99669090554514   -0.50108760454920
C          -5.42447655261840   -4.32654002422659   -0.13972326545757
C          -6.70468990074038   -4.84197721361421    0.00815097268068
C          -7.84279817257525   -4.06539583425490   -0.19632485632983
C          -7.70584470930223   -2.72470016544567   -0.56523646865886
F          -8.79433876145974   -1.98797345253803   -0.76121521468319
F          -9.05727579536540   -4.59912051806813   -0.04313054416947
F          -6.85259289684701   -6.12292726004827    0.35392587831660
C          -4.10565699318610   -2.17587791622434   -0.72551463894709
C          -2.80928341720203   -2.57829513868509   -0.52690229234837
C          -2.43214734030963   -3.88077506124830   -0.13983172372489
N          -2.06585549882958   -4.92335075059830    0.17033354423257
C          -1.68379474187159   -1.73707525370885   -0.65596064799460
N          -0.72675472103416   -1.10687686517954   -0.72389007375935
C          -4.54573394510329   -0.85481946744923   -1.09806887839195
C          -3.75419431171316    0.15274288851535   -1.60129802674579
C          -4.12666538598803    1.49270294727812   -1.75926115956518
S          -3.32230072408469    2.46365010700018   -2.97689545519080
C          -4.26640460359889    3.87861898467196   -2.61785703095103
C          -5.12208347085141    3.60914617157305   -1.56191967916340
C          -5.04682177668223    2.28338680793661   -1.05920001326953
C          -5.85708367253520    2.11370647084240    0.08455906578019
C          -6.55510648226780    3.24676660400144    0.38780793435459
C          -7.49052655879198    3.40285532517146    1.50825466809785
O          -7.68607929073502    2.56608627083998    2.35252671991021
O          -8.08832312144800    4.59938184013373    1.47254627977889
C          -9.02166203497525    4.86239808125924    2.50975475674901
S          -6.24976972144868    4.58605327843271   -0.68385638112921
C          -4.09592009273301    5.08387140229596   -3.34103015816060
C          -3.23646860767969    5.30735517442720   -4.38500761017536
C          -3.28120967599655    6.62716032086771   -4.88139712307108
C          -2.55804617826531    7.16947661532123   -5.96582202084246
C          -1.54687279252196    6.39464977639301   -6.65280806364735
C          -0.61204289717290    5.56112987474084   -6.10624707446592
C           0.22305735351497    4.96869179049800   -7.07725074760035
C          -0.06260308739255    5.33078273846907   -8.36262187859939
S          -1.38896901709009    6.44188981397738   -8.38740796069234
C           0.59921674775798    4.90019610881272   -9.61919369405215
Cl          1.49100122173422    3.88150161263789   -6.65671521651602
C          -2.86336221462287    8.47768367624843   -6.31953471938132
C          -3.81582813693940    9.27366387144037   -5.63158135012590
C          -4.52765472378296    8.73744893748640   -4.53700190776772
C          -4.23243574239882    7.42211790451671   -4.19163076356501
S          -5.01422524642105    6.51482480097605   -2.92410610372928
C          -5.53498575836435    9.48211903411766   -3.80998970843148
C          -5.81063922134924    9.42725258008046   -2.47275110310155
C          -6.91196895313757   10.22999837983033   -2.10657020688474
C          -7.49733658779368   10.89529921387570   -3.14432633394835
S          -6.66605224613684   10.53479054732763   -4.61893975750586
C          -8.66698939775117   11.80877856067649   -3.12503770482554
Cl         -7.45947704384689   10.34509343943108   -0.47893842058703
C          -3.87744377431757   10.58508116564138   -6.15759091044074
C          -3.03093391597643   10.79535772626561   -7.21048447906885
S          -2.10065877983088    9.37040657548741   -7.60350761836414
C          -2.85314944170812   11.99467407486399   -7.96403613383504
C          -3.47618323412635   13.20027413263880   -7.77826422942950
C          -3.06287451209089   14.18604437635290   -8.70034038119274
C          -2.10680521385561   13.69544697131667   -9.60682417913421
S          -1.72944562192694   12.02855533226993   -9.30467892553329
C          -1.55293170179643   14.45037557192332  -10.63601789382011
O          -0.68557991500739   13.76949247429881  -11.41594743833499
C          -0.24366494560557   14.25000485635784  -12.66398084070882
C          -1.95451295782221   15.80126704895244  -10.70611023815760
C          -2.93519613532030   16.29919169558741   -9.78141242981357
C          -3.51590156620423   15.52350684296655   -8.79561342932973
O          -4.46047083708278   15.86062538691491   -7.88515680699114
C          -5.19047934699920   17.05925644094640   -8.01050847321166
S          -3.24045972511719   18.00277638828287  -10.06820363354863
C          -2.10680402371844   18.03875929601756  -11.39932087590591
C          -1.50300147504138   16.81915663191791  -11.57297359579163
C          -1.80473322067485   19.21706510093733  -12.12221333669544
C          -2.54606357442828   20.35521412498560  -12.22919826185044
C          -1.89487169059866   21.63583749539256  -12.60823558689978
O          -0.79683165146596   21.78079260952104  -13.08274040503810
C          -2.87846564705413   22.68106814488973  -12.21958762999125
C          -4.06722327348087   22.07228825067376  -11.77270256521111
C          -3.92884173483413   20.62418775005457  -11.91607157586141
C          -4.96172414373463   19.72709144449058  -12.00855288107165
C          -6.30515710629669   20.03517037917668  -11.71855292363592
N          -7.40673451634472   20.22473528393108  -11.45818098053896
C          -4.79128236351232   18.41642692645068  -12.50503768979963
N          -4.69623647943539   17.37388422476020  -12.97599726675545
C          -5.13300972857733   22.83425775768062  -11.32790200411921
C          -4.99259919171559   24.21471989476981  -11.33475676408685
C          -3.82838876888584   24.83648989791292  -11.78209412844306
C          -2.75753026384281   24.05949342941496  -12.23202852635694
F          -1.65027869486488   24.65908637776616  -12.65532630567674
F          -3.73526582151231   26.16837325865731  -11.77827028006558
F          -6.00031345707637   24.97283562689595  -10.89821826615480
H          -4.58027739058902   -4.97490138607947    0.02672806949922
H          -2.76387288569206   -0.10306921414507   -1.95794776907293
H          -5.92639117831576    1.22386632357664    0.68005037943825
H          -9.38686719521320    5.87151410061563    2.33933480529671
H          -8.53528927409532    4.78679800593564    3.48442164501926
H          -9.84244214244453    4.14353228357233    2.46997464974144
H          -2.61659298502093    4.53109552641726   -4.79490610691590
H          -0.48391897801489    5.40763519091098   -5.05078515524720
H           1.41567202204706    4.22032464085838   -9.38958934851543
H           0.99403408134282    5.76091102613360  -10.15765258663846
H          -0.11015539044317    4.39350235770519  -10.27272375200276
H          -5.23461592373367    8.87068268649379   -1.75754242596966
H          -8.98805492796212   11.96954758741754   -2.09899126281265
H          -9.49579330484213   11.38329413840773   -3.69064962576750
H          -8.41351369074292   12.76827299577560   -3.57377506441009
H          -4.51654861462274   11.35309914330578   -5.76648467562645
H          -4.20374180726400   13.39305068314105   -7.01303587469062
H           0.54084656583177   15.00349458966786  -12.54648444255896
H          -1.06943593662394   14.64688249060538  -13.25939092569612
H           0.17916932974663   13.38131128840625  -13.16866482374606
H          -5.96708589634592   17.00122068898925   -7.24896798572917
H          -5.65837397212847   17.14553082636189   -8.99449384415320
H          -4.56863061887456   17.93802758347334   -7.81934715047407
H          -0.76128717111301   16.69149800351449  -12.33744960999258
H          -0.82160583973378   19.25384117324703  -12.58070788140827
H          -6.05350730796674   22.40118535158553  -10.97207018430543
