150
 SCF done       -315.900346999659          0.000720567194
C          -8.34566696643330   -1.87719167622549   -0.68592727702511
O          -9.06978223680293   -0.94554497720055   -0.42024236728045
C          -8.59351660955262   -3.29365533412005   -0.32106730783467
C          -7.51351528157515   -4.09170322194542   -0.73214829086121
C          -7.52611471957173   -5.45899913073743   -0.51036771818746
C          -8.62968410712809   -6.00654886987737    0.12732882132612
C          -9.70665767191815   -5.22729774021358    0.54612200347151
C          -9.68773809324464   -3.84989943817807    0.31868625774319
F         -10.71661113374724   -3.10795432163838    0.71393317565349
F         -10.74914185890677   -5.79481026944891    1.15695594184860
F          -8.66557779578920   -7.32241214629133    0.34614403214541
C          -6.51488496696989   -3.22962729366152   -1.36518213471644
C          -5.27454636865470   -3.64580439687151   -1.77046220140661
C          -4.81525944241296   -4.97809388614310   -1.67445105110059
N          -4.37998013905527   -6.03890062465899   -1.63309670305299
C          -4.25026601912921   -2.83180980213292   -2.30410382224166
N          -3.34933398747735   -2.25627821416656   -2.72266174120508
C          -7.05813003552979   -1.88208992916815   -1.41590452015725
C          -6.46735305649315   -0.85893621117619   -2.11078621398489
C          -6.82633014568546    0.49272882316553   -2.28442044727909
C          -7.83714840170932    1.26567802126170   -1.75925127971707
C          -7.82020456806189    2.59998656919439   -2.19787194536155
C          -8.70698867249901    3.63753965573617   -1.81903821134123
C          -9.71569975940501    3.41993608530413   -0.80738562827191
C          -9.60573153554495    2.70797957524016    0.35531089651625
C         -10.79967713505233    2.70142325957736    1.10489085361526
C         -11.83030238805530    3.39047731719375    0.52949879720939
S         -11.31836606601676    4.08807698954068   -0.96751118158939
C         -13.21352937014516    3.58146246072360    1.03120202857026
Cl        -10.93217496711624    1.88625077963991    2.61274891998476
C          -8.53816191825464    4.85493751221187   -2.46366442772828
C          -7.51077422739500    5.09905122126986   -3.41326328387787
C          -6.58449166305532    4.08643779424879   -3.74285592247649
C          -6.77966030036333    2.85039311971423   -3.13533297301496
S          -5.80730749377085    1.43364510293395   -3.37705714800003
C          -5.47275316114815    4.31306773413474   -4.64396699614218
C          -4.93887685521158    3.44887994728091   -5.55771408259907
C          -3.81641800892185    3.98295350514116   -6.22572492068703
C          -3.46991476683323    5.24276103811128   -5.83052355445195
S          -4.55627731809060    5.79763518810768   -4.60532649608403
C          -2.34368202350900    6.08672204437468   -6.30360337780060
Cl         -2.96375835869776    3.11221787931774   -7.44100411789557
C          -7.57755442827175    6.41210311777444   -3.92811496451489
C          -8.57659488788438    7.16743099119880   -3.37908256551490
S          -9.50260576311944    6.28110884398752   -2.19522740307622
C          -8.88499799388011    8.52615135238091   -3.68568791933779
C          -8.37011813862068    9.27231100842094   -4.70775983795818
C          -8.85186062078849   10.60134863948229   -4.74105923792524
C          -8.54916772434844   11.61280442964857   -5.67720762922024
C          -7.59094780292668   11.42861863503993   -6.74728142873320
C          -7.63896155792471   11.94230747589217   -8.01238955192233
C          -6.50304049554415   11.61315788368656   -8.78291713624391
C          -5.57130157694295   10.86373835527671   -8.12556423172495
S          -6.10752638036640   10.54008035658073   -6.51209344676222
C          -4.27547277211521   10.33804655388643   -8.62385366327240
Cl         -6.32264192976817   12.12668589928458  -10.41627194084314
C          -9.20868344077784   12.82721405799713   -5.50778828877926
C         -10.11832227521067   13.07623895764699   -4.45023674586778
C         -10.43098413720968   12.06072533521180   -3.52363796745929
C          -9.77749863809465   10.84690959303711   -3.69483114678212
S         -10.01162167287301    9.43348939531018   -2.70660153727096
C         -11.38011957286090   12.29544483390858   -2.45502224858684
C         -12.56185636872128   12.97815510901518   -2.51316171058501
C         -13.21440222585637   13.04613205904480   -1.26341641187046
C         -12.54938188553886   12.42532672169509   -0.24593435325593
S         -11.08116323407761   11.72323325649094   -0.83632089084748
C         -12.93841473597350   12.30151180474061    1.18110157785850
Cl        -14.71662845408276   13.86411545750622   -1.05703006992502
C         -10.57258725402632   14.41539215284368   -4.44756077193136
C         -10.06973716781769   15.16871365502043   -5.46987268647216
S          -8.98574276268919   14.25031550570980   -6.48892660149110
C         -10.36558549438776   16.53702824422407   -5.74540354062870
C         -11.25346404481242   17.33176012382355   -5.07510867988090
C         -11.33675571800256   18.64548276186238   -5.58576325594627
C         -12.13163658756727   19.70768057803150   -5.10628992909054
C         -12.99397301043392   19.55050717477381   -3.95252388768148
C         -12.74354791670594   18.89573646851708   -2.77974406662257
C         -13.85044201328801   18.90677196415657   -1.90501633530442
C         -14.94777675919772   19.55969065202759   -2.39016049553966
S         -14.61744075197636   20.19048931572634   -3.96432987622149
C         -16.27169998414587   19.74621646897289   -1.74479075901526
Cl        -13.82194684439630   18.15065519452025   -0.35881192160044
C         -12.07252424788640   20.88893819692362   -5.82952741385763
C         -11.27504988353081   21.06847745775695   -6.98965636022810
C         -10.44560715664388   20.01753902867572   -7.44342722685243
C         -10.50796994035721   18.82849310803672   -6.72188711807592
S          -9.59819149398811   17.38227703246823   -7.06673988665057
C          -9.56486519938903   20.15636424727089   -8.58199579673478
C          -9.24044333754305   19.21231643438580   -9.51635182613963
C          -8.29937475838292   19.67570622640810  -10.45894954196976
C          -7.88008229425858   20.95992604982630  -10.25601371312152
S          -8.67655053151795   21.62947228408668   -8.87500428001017
C          -6.91015061115657   21.75742894002178  -11.04650378172251
Cl         -7.72961446520354   18.68905588855431  -11.74846899312907
C         -11.47920312537423   22.33943749748352   -7.56704910833131
C         -12.38372243980480   23.12145629054198   -6.89213685610668
S         -12.96264053143365   22.32773580611561   -5.43928208670856
C         -12.78376423505081   24.43457214117921   -7.24443406409703
C         -13.86254874604935   25.13232100840428   -6.79578844083964
C         -13.87485185999937   26.61696917063341   -6.88542723500206
O         -13.16057694558757   27.31149014537064   -7.56204186680546
C         -14.91449379955509   27.03709474753415   -5.90895899406551
C         -15.56618680762914   25.90227050926362   -5.38840261784394
C         -15.03343755610192   24.71507811813039   -6.05370193836296
C         -15.67535465223829   23.51128208122666   -6.16945468440811
C         -16.80653237056500   23.14056762716738   -5.41602835345769
N         -17.70018837008838   22.77751903430008   -4.79431432541902
C         -15.29980639627238   22.53538082202987   -7.12065433330187
N         -15.07001965922426   21.76412283445691   -7.93825706810457
C         -16.55994499195749   26.02787816335475   -4.43358607737124
C         -16.89210162789988   27.30479106087215   -4.00514900198231
C         -16.26625618743865   28.44114519684330   -4.51516030561635
C         -15.26516018873014   28.30571248321476   -5.48034443798103
F         -14.67239738328211   29.39305715881914   -5.96059384451340
F         -16.61975004947350   29.65311211510899   -4.08116150116175
F         -17.83749617890822   27.45345586837325   -3.07513771170939
H          -6.72598292521852   -6.11364122832452   -0.81250077878251
H          -5.56348288409389   -1.11940846456155   -2.64900399393867
H          -8.58259096940355    0.86606382633211   -1.09851094678581
H          -8.70098659344260    2.23980704037544    0.69510634227894
H         -13.36176939595445    2.98936062911273    1.93051886593703
H         -13.93976799283415    3.27625765229182    0.27940939244862
H         -13.39456163210212    4.63040775162933    1.26524739386871
H          -5.34376394446085    2.48027785226112   -5.78360577727998
H          -1.46944901677882    5.94880901167072   -5.66631373070704
H          -2.61693817122119    7.13899029473794   -6.27982248229983
H          -2.07216834482300    5.80403615745110   -7.31808287278550
H          -6.91178899265333    6.79215211135362   -4.67870565106324
H          -7.68365216071332    8.86980796421523   -5.42722663712288
H          -8.46532751710276   12.50348224491355   -8.40660885838228
H          -4.06448297449363   10.75694351362051   -9.60442467848567
H          -4.30857194612489    9.25152467660292   -8.70707121006624
H          -3.46697880546380   10.59897926972769   -7.94263427261723
H         -12.98266020701829   13.37994894541880   -3.41634163837626
H         -13.80714101037342   12.92398564040981    1.38052521644491
H         -12.12074604249729   12.61086105008131    1.83015226333804
H         -13.18464563339492   11.26728970418935    1.42194725613213
H         -11.22510925621154   14.81277183758427   -3.69419234722143
H         -11.85205229524647   16.98145656020106   -4.25644454478733
H         -11.79531977051124   18.46179997599361   -2.52093877909738
H         -16.80295796942810   18.79548072884141   -1.68787550304074
H         -16.87493523179284   20.44929991850603   -2.31287153632663
H         -16.14551350597505   20.11844420979117   -0.72866423277915
H          -9.68017126096458   18.23399171501994   -9.56652208011999
H          -6.40667196403461   21.11430302664498  -11.76390314894169
H          -6.16879051837774   22.21739486936788  -10.39512844841415
H          -7.42014541724335   22.55405195683832  -11.58869856863739
H         -11.02280385148571   22.66222327815469   -8.48471941562987
H         -12.10308218256729   24.98178976925700   -7.88872305936665
H         -17.07141697574097   25.18013721180937   -4.00802157253296
