135
 SCF done       -285.298469342048          0.000296597048
C           0.69960467275315    3.59615633253703   -1.90022237028839
O           0.29222944411190    4.54603530861240   -2.52899380387536
C           2.00341041219402    2.92037902801045   -2.11602898678236
C           2.18794414804999    1.91391489531070   -1.15449211730780
C           3.33426470764858    1.13643977270736   -1.16327730658576
C           4.28404376434747    1.38469107387949   -2.14371263222378
C           4.11725900921563    2.38272299296451   -3.10186401487581
C           2.95951233784980    3.16256857819635   -3.08639451725134
F           2.79837831787667    4.11253753065843   -4.00353663765497
F           5.05574508969050    2.58951611780648   -4.02925852474883
F           5.39334125763371    0.64314374702117   -2.17464230884434
C           1.02069095113914    1.89957731233757   -0.27165811624644
C           0.91410610752285    1.13844352628902    0.86264128333757
C           1.90191406242706    0.22973317512111    1.30136754696932
N           2.66147876521298   -0.52581918636361    1.71256253553279
C          -0.15410332214500    1.15894486776406    1.78696932490373
N          -0.95734916493982    1.11404888019281    2.60624549560525
C           0.06331657416200    2.86562827345624   -0.78247360880649
C          -1.22661542374704    2.95854432608307   -0.32357917162255
C          -2.29591498582059    3.79643396287223   -0.69192686172951
C          -2.38022565367542    4.87025641739712   -1.55170258346418
C          -3.66357605345428    5.42842404697554   -1.64333962451659
C          -4.06236625205316    6.54829270308292   -2.41540105671446
C          -3.16694359483021    7.22142578021967   -3.32896379849750
C          -3.12549944036650    8.55716039989601   -3.62500001536104
C          -2.17874133756545    8.86183367524707   -4.62224436496776
C          -1.49737448694783    7.78034682243751   -5.10709364612548
S          -2.02732495406178    6.34263698149200   -4.31263471952471
C          -0.44222233051514    7.73263663148330   -6.14945367126562
Cl         -1.92035167979252   10.47096904674556   -5.18073150257216
C          -5.38304642527848    6.95384181386961   -2.28402982315488
C          -6.31901960547081    6.28233144084209   -1.45443963769344
C          -5.92082961791739    5.18046853220309   -0.66167498714408
C          -4.59972222786424    4.77266108722782   -0.79330571433468
S          -3.85258726445762    3.46397355638096    0.06908338851010
C          -6.85340272910369    4.54174227794805    0.24086325023239
C          -7.81098257131959    5.13807993333032    1.01306043900940
C          -8.55413328936620    4.20969366588997    1.77116264047090
C          -8.18367378830312    2.90782841132962    1.59243183318506
S          -6.87445990663484    2.81329048822007    0.46449514691347
C          -8.74217155284324    1.68595516657274    2.22302634516144
Cl         -9.82493228322447    4.69788693666023    2.82656746055967
C          -7.61361549145479    6.81721139842553   -1.59763266359815
C          -7.67991935522906    7.88043358154810   -2.46433533393657
S          -6.13222775205178    8.27025091355624   -3.16160563020137
C          -8.83628034990950    8.64284565851358   -2.79569026167384
C          -8.73505474437229    9.74881980800857   -3.66718054576677
C          -9.84256437676682   10.57978469430714   -4.02132076384245
N          -9.62629905656723   11.62996487756393   -4.84377667238431
C          -8.43150386940406   11.87154971303645   -5.30659228297880
C          -7.32525475661325   11.02912530647164   -4.96331264707662
N          -7.51387046953259   10.01530653356370   -4.16799508643146
C          -5.95156585737602   11.26833268479383   -5.48135029070256
C          -8.25987158538413   13.05114381499101   -6.19990486157408
C         -11.14034196219912   10.31475035650650   -3.52147741824236
C         -11.24773953818640    9.20186385347444   -2.66296114432393
C         -10.12299835586854    8.37847762637499   -2.28940847681753
N         -10.48753928322999    7.40357976431532   -1.45083007062917
S         -12.06155675384656    7.50865443352466   -1.16764217044436
N         -12.37583289132797    8.78571395624129   -2.08251982943091
C         -12.29306821209004   11.10427482826739   -3.81664362971503
C         -12.36011537353763   12.25284368372938   -4.56489256487917
C         -13.64684073201727   12.81846911097060   -4.62955801579527
C         -14.04214303799928   13.98954859302732   -5.31876999285974
C         -13.06422209695850   14.85623626322645   -5.93783303577634
C         -11.81002449014286   15.16115219396310   -5.48477266404170
C         -11.13011306956271   16.06163867225085   -6.33042676681773
C         -11.84003476071756   16.45491734910776   -7.42843924476089
S         -13.39884136910736   15.70332945951582   -7.42448865746808
C         -11.44042468891921   17.39772316249996   -8.50278686273856
Cl         -9.53229149768292   16.61201726117766   -5.99586721990628
C         -15.40124648569462   14.26794330804747   -5.32078518015454
C         -16.36581639386760   13.47760855247209   -4.63937466692802
C         -15.96339837615314   12.32514297239223   -3.92496795583861
C         -14.60312710926151   12.03456571229762   -3.93317603880049
S         -13.85423755721381   10.65845131961374   -3.16795261343712
C         -16.90030204980607   11.46048586105291   -3.24229342408170
C         -16.71160059570986   10.77531471016319   -2.07448086324312
C         -17.80958560738448    9.95769605196298   -1.73588329753244
C         -18.83829053875222    9.98890092835973   -2.63374273575477
S         -18.45601668381581   11.06895642265243   -3.92914037130190
C         -20.13080588512397    9.26076909881950   -2.59638328781848
Cl        -17.83109997057665    8.99649149600149   -0.30866914474526
C         -17.65671126255847   14.03202785239707   -4.73725386734043
C         -17.71111746358306   15.20992850622842   -5.44175991336430
S         -16.13756951026439   15.64700212042274   -6.08375443830484
C         -18.88349818217419   15.95459518010320   -5.71477967602044
C         -18.99010146928373   17.24200013331634   -6.14500801707611
C         -20.23373497575444   17.69736207221107   -6.82030945308738
O         -21.30068844135301   17.13818448757737   -6.83402189295104
C         -19.84168072684687   18.95329108034552   -7.51284502665087
C         -18.51868163241233   19.29226610969904   -7.17003750015794
C         -18.02848192130996   18.31995582593529   -6.19404334027547
C         -17.01218532565196   18.53362678647902   -5.30110134221952
C         -16.12059786682304   19.62265880028162   -5.36649549153515
N         -15.35252524023281   20.47464727393525   -5.40024573514274
C         -16.81658173888080   17.72905749740680   -4.15639971786643
N         -16.67811931482204   17.14840938100079   -3.17642979990390
C         -17.90856972299326   20.41056586817864   -7.71024841010651
C         -18.64093079939048   21.18611617008929   -8.59731674038253
C         -19.95537714351102   20.87433019012617   -8.93997905982303
C         -20.56403296183467   19.74318290553817   -8.39033751937033
F         -21.81644081348341   19.45092493700486   -8.72311030042955
F         -20.62863465840978   21.65148041125169   -9.79186074399470
F         -18.07186235185030   22.26323989035145   -9.14266687236750
H           3.51922720423627    0.34915482859730   -0.45185558955316
H          -1.50389414856582    2.24163028686372    0.44050354927980
H          -1.52417303988373    5.24115800707862   -2.08165530602508
H          -3.71159145677090    9.30413506855428   -3.12353974773065
H          -0.11305565213066    8.74050573276487   -6.39063546622848
H          -0.81995583593170    7.26161751578070   -7.05742550187638
H           0.40866538839378    7.15022735630296   -5.79997334489440
H          -7.95774038736478    6.19981267230261    1.07954836895629
H          -9.58638037000483    1.95131673689204    2.85450524226326
H          -7.98652063601730    1.19154472016186    2.83296362463364
H          -9.07388968508971    0.97888740439052    1.46378375911841
H          -8.48979191027886    6.42947390333350   -1.11385103311555
H          -5.94990061238977   11.26739856297575   -6.57007132949073
H          -5.28803661583151   10.48913271486380   -5.11837539352439
H          -5.58624411398520   12.23904818037889   -5.14906101438435
H          -7.86435120311590   12.74123998892389   -7.16581624199557
H          -7.55542387865795   13.75679231134505   -5.76205795683006
H          -9.21511806804185   13.54677300560940   -6.34581823907607
H         -11.49621655149869   12.63863451314648   -5.06902488546374
H         -11.39856333770234   14.80260665000773   -4.56005153103839
H         -10.35681643666710   17.48630825873602   -8.53343080668499
H         -11.86164002918794   18.38652867719719   -8.31629788254064
H         -11.80227096527478   17.05414685652669   -9.46939252446889
H         -15.84173193603813   10.87089093512853   -1.45264716212562
H         -20.13531496781087    8.56577578413008   -1.76053559442311
H         -20.28742529859709    8.70779025160267   -3.52152537790133
H         -20.96075090735540    9.95750869560265   -2.47874038259496
H         -18.52644078471807   13.61654665961191   -4.26263386926654
H         -19.81638116015620   15.40273275917809   -5.65474744996029
H         -16.89505572860431   20.69335516463734   -7.47771223656060
