146
 SCF done       -306.819889042599          0.000529032398
C         -12.20745383647711   -1.56758299539233   -2.67114845960658
O         -12.76909722637450   -0.51895097193824   -2.89832958846300
C         -12.83387947624784   -2.90766255081588   -2.59965003209454
C         -11.85523536421959   -3.87236340684867   -2.30097776607078
C         -12.20094448960882   -5.20861968449672   -2.18494467431476
C         -13.53046197011101   -5.55886504242661   -2.37193072408575
C         -14.51163629022056   -4.61418132324391   -2.66838257544217
C         -14.15747224723565   -3.26826386792924   -2.78341410004587
F         -15.09168067868004   -2.36801433332077   -3.06714633687103
F         -15.77904431473196   -4.99315746513815   -2.84220630213480
F         -13.88366665850102   -6.84056909700462   -2.26657440452570
C         -10.56021027517346   -3.20215810654299   -2.16835954966406
C          -9.37914966757571   -3.82894523838417   -1.87044606858121
C          -9.25125319974645   -5.21755009883871   -1.64603912740874
N          -9.07675370591275   -6.33483194544418   -1.45219502342249
C          -8.11925198293631   -3.20459186549492   -1.73930677787551
N          -7.05786062782300   -2.78450604760120   -1.61477215756447
C         -10.77520486548839   -1.78734089327853   -2.40712804233101
C          -9.80503359637137   -0.82165625073710   -2.39978158283196
C          -9.88489300257357    0.56469990410519   -2.63414761998695
C          -8.75357534880510    1.36411206852917   -2.60835799543840
C          -8.99729635041486    2.71537013143324   -2.88237165915819
C          -8.05752018481655    3.77432483625960   -2.96928101071251
C          -6.63201369816439    3.57934044878126   -2.83856733397636
C          -5.71351482784936    4.44485458891493   -2.30798379761176
C          -4.38787906865529    3.97711863561253   -2.41468373102642
C          -4.26802044477902    2.76323399101253   -3.03264465899217
S          -5.82755577531476    2.17027078296446   -3.48320047647431
C          -3.03943950483725    1.97824478043895   -3.30437762970194
Cl         -3.04485400566738    4.88220780870994   -1.83012344441370
C          -8.58590349560571    5.03124605617172   -3.22955822453969
C          -9.97012775801811    5.28058907399971   -3.43333974486475
C         -10.90058514040132    4.22098438839922   -3.37248915266446
C         -10.38465564694596    2.95876360557660   -3.08202071596837
S         -11.32313914164488    1.49849207109233   -2.97918499926573
C         -12.31530467846753    4.40059895740586   -3.62228857863780
C         -13.36092695683874    3.75828123669157   -3.01807446117823
C         -14.61305065583799    4.12193431004887   -3.55381874841610
C         -14.54993194533176    5.02511353875401   -4.57711181427452
S         -12.90626120259709    5.46047046097165   -4.87901058576129
C         -15.67227814751510    5.60250975838314   -5.35930907197955
Cl        -16.09803185558044    3.47738314819863   -2.97710837885110
C         -10.22897134557644    6.64446549130833   -3.68914471695170
C          -9.10455555940208    7.42685293891709   -3.71932013163529
S          -7.65335450905382    6.48900089057988   -3.41859988126690
C          -8.97222529173314    8.81648491352543   -3.97248944192563
S          -7.43123111964382    9.42234145335911   -4.46602795423799
C          -8.01428785875463   11.05476887108499   -4.60630830752820
C          -9.38762014513498   11.11201557850635   -4.29088434253018
C          -9.92344827918600    9.84498134239961   -3.90888139314809
C         -11.26816132889335    9.77906977975064   -3.49321662024194
C         -12.04830787481770   10.89645687066196   -3.54704965469709
S         -13.75352221266660   10.79777908062740   -3.04262723400696
C         -14.51520217746004   10.50525503348728   -4.68434561476533
C         -14.16076426029755    9.14428894927782   -5.24783858107865
C         -11.53557477988510   12.14639046389401   -3.98911690921491
S         -12.69446652436286   13.45588099400724   -4.02834384258481
C         -11.74656159529480   14.90716800362375   -4.60254983611632
C         -10.91430597543506   15.53324373048064   -3.49899246486930
C         -10.20919806084359   12.24538209971094   -4.34128022944082
C          -7.16075677509464   12.11543860275714   -4.92800630128596
C          -5.85991493357792   11.94393577493669   -5.30938308741676
C          -4.91617273543919   12.95876692169648   -5.60367903269175
C          -5.41045891369401   14.34957484123662   -5.60062061315741
C          -6.52377699900382   14.76814002435886   -6.32810371828806
C          -7.09849952054596   16.01806985971313   -6.13714857421700
C          -6.57098627850898   16.88574144787532   -5.18710517476287
C          -5.44967762222199   16.50183631909334   -4.45801053422704
C          -4.88088386055319   15.25187391904837   -4.67431944359617
F          -3.80732402570849   14.90972068063040   -3.96294184359177
F          -4.92524705785012   17.33318015321994   -3.56005797215859
F          -7.13216301388853   18.07649272493901   -4.98579243198924
F          -8.17286430117962   16.37544929303127   -6.84604831701636
F          -7.06417296361148   13.95746120735353   -7.24600170666752
C          -3.56523004796294   12.65558536507270   -5.70495764166019
C          -3.08652901698618   11.41859306734483   -5.06249361139496
C          -2.18246521473650   10.54840198712892   -5.67962996300269
C          -1.72396239975492    9.39220488861174   -5.06242595689529
C          -2.16139780625329    9.06718526175180   -3.78249999236708
C          -3.04822974897611    9.92145420702307   -3.13294971459975
C          -3.49148825598396   11.07443553690376   -3.76517450236275
F          -4.31861407558935   11.87769181949211   -3.08953077839161
F          -3.48023468692966    9.62653787704980   -1.90735256019226
F          -1.74362264311681    7.95202761895254   -3.19052546045571
F          -0.87892023238695    8.58641060406291   -5.70577917942899
F          -1.74121317790394   10.81340076658355   -6.91522499945418
C          -2.56678080807937   13.44275473979026   -6.38957738198068
C          -1.28829683634465   13.56924258036530   -5.90886406073224
C          -0.35412701315245   14.23905775214148   -6.77027440119595
C           0.96099113233534   14.52253272853166   -6.51019986640794
C           1.62911639858323   14.19711198080092   -5.31498421003843
N           2.23954700951303   13.96443991794451   -4.37196263888849
C           1.75072351812097   15.18071415904739   -7.47495137320781
N           2.38528563166754   15.71588667154825   -8.26672100924162
S          -1.10548780637492   14.67979173715830   -8.27291613813254
C          -2.76804135218647   13.97303785460319   -7.79701938976162
C          -3.68940672917851   15.16622323422489   -7.94810197288322
C          -4.59435956098034   15.27614583959700   -8.99472893607507
C          -5.33156612571937   16.43723163501363   -9.16116030016008
C          -5.15265948511014   17.51045103168964   -8.30756798802862
C          -4.22787634266909   17.41910888294953   -7.27931864411347
C          -3.50386298645314   16.25651155977332   -7.10107706498637
C          -3.12402716804493   12.78245474430243   -8.67772425684167
C          -2.18623253701895   12.16573258880205   -9.49404854355613
C          -2.52376270150348   11.04907498136802  -10.23867330402501
C          -3.80154579218314   10.52538620071440  -10.17575869741654
C          -4.74480886890025   11.13554908378157   -9.36755145970772
C          -4.41023209997066   12.25340235214468   -8.62636697214720
C          -0.91375228221338   13.09635694099996   -4.63422140921752
N          -0.65593813721477   12.67401482971482   -3.59992457982096
H         -11.48912026536948   -5.98478783112013   -1.95866378324141
H          -8.79359466758578   -1.15022658709220   -2.19422433487941
H          -7.78251389176508    0.95954918696226   -2.38819338781567
H          -5.96138056034484    5.36429023012636   -1.81157370306517
H          -2.16424859223647    2.59901408329255   -3.13038339561795
H          -3.02898188650154    1.62092362476311   -4.33264750579528
H          -2.98777445053631    1.10944396886336   -2.64754928572524
H         -13.25821990194706    3.07303351998510   -2.19811312501801
H         -16.33161636421024    4.80672605680269   -5.70350803621625
H         -15.29740014220349    6.15363383562273   -6.21742445950503
H         -16.26382366675307    6.27572173124515   -4.73759380761788
H         -11.21235277325858    7.02364975707736   -3.88477295016833
H         -11.68698446662017    8.86398917179488   -3.11155901126001
H         -14.20273535032275   11.31447399199375   -5.34298665527450
H         -15.58404324348095   10.58895547059548   -4.49516711427989
H         -13.09317110855775    9.07159023676059   -5.44782195954994
H         -14.69643919543243    8.98355789606443   -6.18105635021609
H         -14.43608471223152    8.36106778268335   -4.54592942134001
H         -12.51917173007796   15.59950524350815   -4.93692112940286
H         -11.15150625602768   14.61190061096499   -5.46601238959791
H         -11.55600508062509   15.85057575902046   -2.68057337214903
H         -10.38988947576903   16.40552514491555   -3.88487475373253
H         -10.18310006562433   14.83149334722802   -3.10241241763419
H          -9.78457197521623   13.17977394993829   -4.66619627162873
H          -7.57615716081331   13.10812802756808   -4.82921606580175
H          -5.50180203218212   10.92587153792422   -5.39116666244956
H          -4.71923157233690   14.46525278699881   -9.69486737276956
H          -6.03539915385628   16.50477130047929   -9.97647346512737
H          -5.71568835813914   18.41995551049791   -8.45077456295865
H          -4.05604553788851   18.26159496301825   -6.62609466700665
H          -2.76649751397658   16.20222843898702   -6.31154030243964
H          -1.17943586795124   12.54703248828434   -9.55751849419941
H          -1.77664605498641   10.58758360206899  -10.86565649679168
H          -4.06214434861774    9.65051323244330  -10.75170072973281
H          -5.75015534312829   10.74591890123760   -9.30892075166394
H          -5.16498177477751   12.71417434822805   -8.01226981567951
