138
 SCF done       -290.262124549214          0.000687037656
C          -7.58819689068407   -2.50320526349784   -7.46296314413308
O          -8.37656365612047   -1.61421725737346   -7.69700432639577
C          -7.72025474630319   -3.92574448921088   -7.85824519022012
C          -6.59218692963186   -4.64333266966016   -7.42312285531280
C          -6.48599678838402   -6.00151798592813   -7.67289541605019
C          -7.51951634549530   -6.62280547918599   -8.35910685343009
C          -8.64338673468082   -5.92510423964764   -8.79696253712544
C          -8.74461241714037   -4.55552365607621   -8.54289163680631
F          -9.81694961015506   -3.89146203426418   -8.95956936042490
F          -9.61638960011802   -6.56129226512678   -9.45333777867913
F          -7.43751321886412   -7.93134417630405   -8.60832224267874
C          -5.68781114700887   -3.72183621260809   -6.73217332169848
C          -4.48209456071492   -4.07330451850756   -6.18220034772907
C          -3.94687149998906   -5.37932786630474   -6.20847022722540
N          -3.45431376218169   -6.41556506211314   -6.19009615952702
C          -3.59209060142865   -3.20617194889195   -5.51238539102562
N          -2.80770771519494   -2.57823254077296   -4.95606468769784
C          -6.30676235806909   -2.41184660457512   -6.74485443677205
C          -5.78732279884057   -1.27981699482068   -6.17229278225770
C          -6.30289185347847    0.02553102836558   -6.08206368579714
C          -5.61076762261054    1.02987987917938   -5.42171020005676
C          -6.27712206372964    2.26013853790216   -5.38897957455645
C          -5.87048600125002    3.45500270702925   -4.74043750667058
C          -4.55795996284099    3.56195270100308   -4.14393925912959
C          -3.37378312062495    3.09592456925798   -4.64461366824821
C          -2.27832112802537    3.37401904022808   -3.80104643563763
C          -2.60626044042725    4.03816321320209   -2.65318279309257
S          -4.30736155695732    4.35227260395582   -2.61143285974892
C          -1.71478910993812    4.48199375464395   -1.55275206774236
Cl         -0.66932724064203    2.90641589702287   -4.19694323024625
C          -6.79497483825061    4.48643616272488   -4.72374435876711
C          -8.06281014484112    4.41240024925684   -5.36459354865204
C          -8.44912599769306    3.23947846967823   -6.04418615187882
C          -7.54025066986333    2.18342387648730   -6.03567659971198
S          -7.83156330954428    0.60681349626656   -6.70982501011362
C          -9.73538766985233    3.09551477917908   -6.69479381601681
C         -10.01524259949213    2.42568792158523   -7.85233443899066
C         -11.39048510409073    2.42973448286557   -8.16865600680154
C         -12.17728826766457    3.07968916021861   -7.26227098360583
S         -11.20188555840802    3.71924121615531   -5.98488375502369
C         -13.65005246872700    3.26464663463796   -7.27057742203858
Cl        -12.00903456208578    1.67307567747315   -9.58426463779547
C          -8.78152729129433    5.62153699399779   -5.23413524018682
C          -8.12926028572062    6.57840359487351   -4.50970350318619
S          -6.55606669954131    6.04054547346114   -3.96792236250063
C          -8.61587685170912    7.86939505336225   -4.15816578062993
C          -8.01452801365287    8.80099205091469   -3.35943687822155
C          -8.80242986215122    9.95838268429334   -3.16338516184309
C         -10.02677417479731    9.88519056447217   -3.84955352638109
S         -10.19011436085959    8.39564118490474   -4.72776208577185
C         -10.99717828184950   10.88045706148220   -3.81366663709792
O         -12.09321034099394   10.59884419766122   -4.56395722119919
C         -13.12324980875106   11.52819033371507   -4.79130769635490
C         -10.71625119802500   11.99796080967067   -3.00705442717467
C          -9.46267304678487   12.07729403671841   -2.31238822387914
C          -8.49219214012391   11.09146572797415   -2.37937792350094
O          -7.27213203144708   11.03900653645897   -1.79020776286882
C          -6.80380642963722   12.09001341602016   -0.97959093034080
S          -9.37493047628080   13.55527556355824   -1.36425848246198
C         -10.97521587824023   14.02758899057262   -1.86685595529502
C         -11.53184281777778   13.12341071363819   -2.72134561955974
C         -11.57226026845287   15.21770459794689   -1.36454220151207
C         -11.04767557241008   16.10059032584766   -0.46481834018387
C         -11.92015809317397   17.16264050914950   -0.13461925956699
C         -11.68096163278577   18.24392521737774    0.73910765870632
C         -10.47409392776044   18.37017912717389    1.52857354992703
C          -9.81789970507503   19.51858616436725    1.87209705321686
C          -8.72962900140833   19.28780536532582    2.74002030767244
C          -8.54388126952074   17.97861302157877    3.07813147503441
S          -9.73368221808755   16.99318536572825    2.30009658596440
C          -7.52233004581220   17.38693873316212    3.97752844533938
Cl         -7.73030723027052   20.56431169234565    3.31858714131721
C         -12.70111609177661   19.18091410549618    0.85102710259332
C         -13.93548921044498   19.08974338493734    0.15819554245781
C         -14.17008785671918   18.01278911329060   -0.72582957846397
C         -13.15025126254961   17.07440533643691   -0.83496149514907
S         -13.18698674516249   15.66996034903187   -1.86506719053689
C         -15.39015090989966   17.88413617260426   -1.49246941771160
C         -16.06886763260021   16.74067647445174   -1.80830501300505
C         -17.18738805991182   16.97910118160763   -2.63401415409261
C         -17.37276452857489   18.28916767144769   -2.97222513444199
S         -16.14616225085684   19.26596993218125   -2.24239289254241
C         -18.43611253994462   18.89175158996206   -3.81380519774545
Cl        -18.21915982074847   15.71005331930688   -3.17061603619211
C         -14.82614691934998   20.11547931784166    0.53615058781085
C         -14.33152334227699   20.95833842494159    1.49905168544212
S         -12.67445237306317   20.55558954969797    1.91524863460031
C         -15.00411824718048   22.07569745044520    2.05319535458651
C         -14.72631333539909   22.73931377653678    3.20793585940881
C         -15.21603599917263   24.13078391999774    3.40038248813479
O         -16.06114239775721   24.69860957731436    2.75688636342706
C         -14.39011185793003   24.66381681163923    4.51507008045454
C         -13.57898007399068   23.63875740106020    5.03884411576473
C         -13.89328841222163   22.39400511818465    4.33887596359748
C         -13.67771536287855   21.13274123002837    4.82620553748605
C         -12.90420137297225   20.84866259236477    5.96989575646285
N         -12.26384509975138   20.56526909187489    6.87886200205053
C         -14.29656767056973   19.98340190161989    4.28591817764566
N         -14.84244493977510   19.04291078585414    3.91964204505734
C         -12.69233103135302   23.89046611240113    6.07094125577727
C         -12.62974874768300   25.18220761286087    6.57344284151047
C         -13.43262798754808   26.20781676071906    6.07677693564933
C         -14.32465717159534   25.94540228043024    5.03403749173211
F         -15.08482835593435   26.92790590948034    4.56371687305789
F         -13.34742025983374   27.43588508567725    6.59327817811594
F         -11.77536807733128   25.45548465906849    7.56098144356374
H          -5.64330571159308   -6.59483024732585   -7.35966683345578
H          -4.82417128380667   -1.38199665021749   -5.68700837330813
H          -4.66399736000526    0.84888875501884   -4.94512079247076
H          -3.27202633012613    2.61431420807710   -5.59946000222280
H          -0.74429018599516    4.00158563098828   -1.65003311251312
H          -2.14520419069393    4.22987181437408   -0.58541008477563
H          -1.57392362442580    5.56272781380120   -1.58669623066698
H          -9.27538186294076    1.96935838746780   -8.48267157110289
H         -14.05102617424080    2.95462240572702   -8.23235540314755
H         -13.90723900803298    4.30757151962267   -7.09285603011903
H         -14.11633923694286    2.66544082468596   -6.48804975150220
H          -9.75331507441154    5.79636555393467   -5.65689591880208
H          -7.04741810348083    8.66467982624408   -2.91094303228562
H         -13.75213326396364   11.06971849674026   -5.55437797150711
H         -12.73696083633888   12.47845834106334   -5.16981360493247
H         -13.72424968665727   11.69272705357571   -3.89193179843481
H          -5.80369658331379   11.78621924759918   -0.67250843669341
H          -7.42571585845591   12.22667503547216   -0.09122585877797
H          -6.73954550045451   13.03137217968356   -1.53133493162847
H         -12.52140301739847   13.28367852657390   -3.10326430440626
H         -10.05844636897073   15.98462071017057   -0.06196974269693
H         -10.06424238672220   20.49326090397656    1.49384165186063
H          -6.71830076649031   18.10088192077671    4.13945475112310
H          -7.11364956819002   16.47429865144653    3.54805630698070
H          -7.96331513848749   17.13755798545491    4.94335670027008
H         -15.81538033940479   15.76541514940716   -1.43724684624515
H         -18.99893549115993   18.10593653406875   -4.31143603081329
H         -18.00490615926588   19.55348771490685   -4.56320121588781
H         -19.12189784050353   19.47925828187789   -3.20282350896679
H         -15.82956854887532   20.20678069915819    0.16311177991472
H         -15.79064362791581   22.50615458427141    1.44133307299546
H         -12.04870329875589   23.13285423883830    6.48715062545672
