98
 SCF done       -218.841353499487          0.000620511870
C          -6.79758833261223   -1.56178905910977    1.54225325323158
O          -7.07118216540029   -1.27613851774785    0.40061184180253
C          -6.74488859952766   -2.92766464340545    2.12182888062080
C          -6.41304739641949   -2.85855027649198    3.48594601128064
C          -6.31787219330259   -4.01037288000002    4.24833241301460
C          -6.55883280064970   -5.22637680388391    3.62491422395674
C          -6.88737684963093   -5.31298366746811    2.27342811221212
C          -6.98336058173128   -4.14638317599940    1.51084160502570
F          -7.30272171961434   -4.23251232093838    0.22491256471456
F          -7.11307690858053   -6.50260413159344    1.71209156786948
F          -6.47910120729361   -6.34936660530611    4.34089395645659
C          -6.22553486703029   -1.45380626033300    3.84737989153406
C          -5.76513149794806   -1.00127284859887    5.05647392333225
C          -5.46652880171983   -1.83598566208229    6.15465313730643
N          -5.21087696140102   -2.45994351107241    7.08303042501671
C          -5.48791591837507    0.34828105401056    5.36527490551522
N          -5.22273516054696    1.41886599810896    5.68438208393137
C          -6.52416856831214   -0.65330603825548    2.67885836107835
C          -6.71013744742170    0.70576536997334    2.69735225856272
C          -6.89105343111175    1.60177839609209    1.63078081266215
C          -6.61343243462236    1.50174251156646    0.27033593021104
C          -6.91060583422077    2.67068520634046   -0.41236019966409
C          -7.43847965438699    3.68449036797354    0.42539155687020
S          -7.51843070878651    3.20484934180364    2.05282566783742
C          -7.74824599908353    4.80522836303559   -0.37000661104941
C          -7.41166978369364    4.52325081339699   -1.70770966179820
C          -6.85524448142805    3.17777933643114   -1.77280902614174
C          -6.35851846315783    2.55065537254437   -2.87663250281252
C          -6.36676528234450    3.16812861728310   -4.14585005362873
N          -6.37779824534188    3.67543946969199   -5.17399364892612
C          -5.77096081006693    1.26715597345215   -2.82839833754244
N          -5.26113566371071    0.24146719912725   -2.80546823663178
C          -7.68779864609939    5.57867490634716   -2.57108842670145
C          -8.23694015510364    6.66686388962307   -1.90898646113494
S          -8.40869237572693    6.37061978153768   -0.18136628809151
C          -8.65893738969581    7.90705168362410   -2.46233832291247
C          -9.20117421467124    8.90385708390103   -1.68128597303899
C          -9.65113266907829   10.13235568358709   -2.14792032094534
C          -9.44446226615614   10.52102564625299   -3.54905753650958
C          -8.94380692704172    9.69508967254237   -4.49483726390594
S          -8.46027046691917    8.07635394519446   -4.20072574971848
C          -9.86289864050697   11.87767515496298   -3.63114961774772
C         -10.30830633183815   12.30855469929016   -2.37852244410150
C         -10.74046046908434   13.65267967921473   -2.40052196058572
C         -10.61101214885505   14.19542881132397   -3.63931810829829
S          -9.97053107858474   13.10680094005796   -4.82424184371475
C         -10.21849634516229   11.21950784612984   -1.44435582299602
C         -10.64571909926578   11.29341252711108   -0.09905227627442
C         -10.95762699536674   10.22799257129751    0.69091270624738
C         -11.30486439912012   10.29443437713458    2.05801669049878
C         -11.36347114757566   11.38930890883718    2.91444457943750
C         -11.70127279766212   11.02193388414220    4.21004626820036
C         -11.90483502180337    9.63369207639817    4.35982057892000
S         -11.68347834039879    8.79116394868315    2.89028439355949
C         -12.20701227604431    9.36072023938634    5.70898193050972
C         -12.19856410313668   10.58230715500522    6.42443320319534
C         -11.87980648324323   11.65930916016951    5.50756143166690
C         -11.74076897773815   12.98220037875866    5.81150194336048
C         -11.91137192541868   13.45216991094839    7.13075029727990
N         -12.05658810182583   13.81393754193431    8.20907600255587
C         -11.42232857518064   13.94500213541426    4.83185152466326
N         -11.17180393509169   14.72013884733483    4.02482726306487
C         -12.43631728740029   10.41597781725283    7.77876185543443
C         -12.62724685837775    9.08182850134925    8.12327685010281
S         -12.54237666789582    8.02736474748982    6.70974439559351
C         -12.90528178061036    8.51588495524428    9.37833538766585
C         -12.75229001710766    9.05654203190893   10.62568094625606
C         -13.51109928051874    8.44690281787552   11.75001004503677
O         -14.10776198887598    7.39936280950540   11.73278331712927
C         -13.40415242592310    9.42908905670159   12.85735023405529
C         -12.54955835258746   10.47883254563165   12.47355187262415
C         -12.01962233468693   10.18852874226331   11.13788240336492
C         -10.87154146912608   10.73727878920520   10.62586895893848
C         -10.13553480746612   11.76479326904208   11.25356738155683
N          -9.49671139209985   12.59688822011940   11.71759004892669
C         -10.22916358030432   10.27479794521775    9.46087043778827
N          -9.65523891181985    9.91715981115249    8.53306876153983
C         -12.31698898134894   11.54907802691497   13.31877314508565
C         -12.94467987024476   11.54843237491643   14.55670423459826
C         -13.78133464258106   10.50980702400091   14.96086806408169
C         -14.01577395577166    9.43578511140534   14.09862553362764
F         -14.81990911866671    8.45171429824560   14.48546874288903
F         -14.36035496266833   10.54332291950214   16.16323332155808
F         -12.74534292465198   12.57341365190614   15.38676197712079
H          -6.07316893537097   -4.00389100540779    5.29747447249575
H          -6.75960965373782    1.17354469643791    3.67399662580647
H          -6.21362857265962    0.61150999729484   -0.17795131888032
H          -7.50789347758854    5.57254550249690   -3.63099559441740
H          -9.24108134804476    8.70769535640316   -0.61918393353848
H          -8.81958338225964    9.99873635772333   -5.52231785869567
H         -11.12187267233250   14.19286047071505   -1.55347804417802
H         -10.85685477071951   15.19288717967786   -3.94708697567769
H         -10.76239272923077   12.29158314757281    0.30120593470348
H         -10.97473924420760    9.23644158790494    0.26309742193300
H         -11.16049420255028   12.39522731070480    2.59715283390095
H         -12.51697145750859   11.21872898390076    8.48876201623312
H         -13.36940097995384    7.53396176283569    9.36975823736881
H         -11.68456588978016   12.38036311003084   13.05391276546666
