91
 SCF done       -217.149558463619          0.000568140460
C          -7.70136641493484    1.31254517025862    0.71904812713926
O          -7.59331722884287    1.33964902044381   -0.48525395607612
C          -8.52584361955235    0.37204117399813    1.51833399459693
C          -8.48212359825745    0.73066635880340    2.87747988681589
C          -9.19595284240137    0.01146307793251    3.82057073260834
C          -9.94692978517733   -1.07107676599602    3.38415938278839
C          -9.99558386130586   -1.44479176633957    2.04231200147956
C          -9.27767350762216   -0.71003181854135    1.09565450618281
F          -9.32325631857287   -1.07031235561678   -0.18261258248583
F         -10.72303473604389   -2.49726693484605    1.66365807744744
F         -10.64442676655463   -1.77778608631869    4.27429193804395
C          -7.60690261503717    1.89400624551801    3.02335053886056
C          -7.21649037090532    2.45733482775060    4.20960450923084
C          -7.66544505778240    2.02980246711687    5.47745886539758
N          -7.99967177336131    1.72652474050059    6.53224047851806
C          -6.28335761838872    3.51116796603958    4.32344609945618
N          -5.51452500409704    4.34746418499441    4.48659748335414
C          -7.15038651577675    2.26963643685165    1.70456941000149
C          -6.51577505673805    3.44158696529756    1.37582458724712
C          -5.91061241236330    3.75339552050405    0.14760918079497
S          -5.80949065581373    5.43333870474757   -0.33288044397874
C          -5.03502437191327    5.06168610765475   -1.83663055044019
C          -4.81757872391304    3.69425933396093   -1.92529036692945
C          -5.29386363869842    2.94571723376316   -0.81582451580264
C          -4.96183969991889    1.57514361443476   -0.92621738524165
C          -4.31870290959947    1.29931410811831   -2.09614885829120
C          -3.82325907329377    0.01617159366999   -2.61079180536055
O          -3.24684487626168   -0.09332875504366   -3.66569487591659
O          -4.08102215789889   -0.99286304120815   -1.77718677640057
C          -3.65149347939908   -2.27774753032597   -2.21047475000046
S          -4.05486352413780    2.69009949423400   -3.11121270474723
C          -4.70603715355344    6.05884456230310   -2.79352149123166
C          -4.00452973770314    5.85645868111563   -3.95316243860924
C          -3.84790596614352    7.02820719674825   -4.72289314347026
C          -3.17816044818137    7.22437445158479   -5.94662736025712
C          -3.19714279688313    8.53044313689814   -6.46422362322171
C          -3.83210951647965    9.55291740906797   -5.70879848120698
N          -4.43280032706056    9.38238827657033   -4.55157416444803
C          -4.44501959351842    8.15270500836021   -4.08684882378962
S          -5.19611875278865    7.73109439860651   -2.58397417273864
S          -3.76839117107076   11.10890465134671   -6.48338966751611
C          -2.94464770957683   10.38667653955887   -7.83742295248626
C          -2.71501702487227    9.05664033510044   -7.70099403101829
F          -2.14168301004958    8.31567614442264   -8.65844039479396
F          -2.61623123258602   11.13573672816202   -8.87913785179000
C          -2.47695732401575    6.14580084279801   -6.60885255160069
C          -1.21140460263956    6.19500931238756   -7.14825594919686
C          -0.82090467575014    4.96162923989311   -7.67675832565074
C          -1.80940010015336    3.97315297712537   -7.54059378967001
S          -3.20653788672647    4.55674653509036   -6.76030833323358
C          -1.32599763550082    2.76192428745941   -8.10207492260826
C          -0.02637198569732    2.99720076736624   -8.59631471944178
C           0.32800702815596    4.38678101475131   -8.35354760587382
C           1.48452041974156    5.01008794865538   -8.71827805612568
C           1.73670462234369    6.36564487461881   -8.41731086117753
N           1.94675161247989    7.46032342134751   -8.15052096339011
C           2.49913949310625    4.31631323212434   -9.41173507860676
N           3.30975118299524    3.73045102719013   -9.97230421181636
C           0.53615374295515    1.87653741595158   -9.18774381021337
C          -0.31913915479860    0.78134399222353   -9.15478632998860
S          -1.83365639133034    1.15940204543029   -8.34236104213599
C          -0.09059254137043   -0.52929897462693   -9.62146219241598
C           0.85305336877882   -0.97219110387607  -10.50142874640177
C           1.19112818946535   -2.42360700336515  -10.50401807632296
O           0.57467548955098   -3.30668109177778   -9.96466670470741
C           2.46206496999574   -2.51390680990018  -11.26389137561498
C           2.78816333380416   -1.25045738308631  -11.79094398792170
C           1.71716153960231   -0.30989815755911  -11.45300384019530
C           1.46455846187388    0.85386149223126  -12.12955028730487
C           2.29118217298929    1.37148126027651  -13.15063778302278
N           2.92447844876052    1.83379193081177  -13.98721644232342
C           0.29698030132728    1.62406167823191  -11.95457909786168
N          -0.65026934750212    2.26499237677050  -11.86143286843583
C           3.95656092556829   -1.05947897239005  -12.50718849901273
C           4.78902779742875   -2.15361440962839  -12.69649150095903
C           4.47521409114005   -3.41668556244593  -12.19628060981872
C           3.29678277392799   -3.59923406132203  -11.46855076788530
F           3.00647170141976   -4.80203437488625  -10.98670243488146
F           5.29918809963624   -4.44477322813783  -12.40647900589454
F           5.92594150149861   -1.99567326826551  -13.37424364548430
H          -9.19796308706369    0.25642047345111    4.86978673771040
H          -6.51572779908063    4.24254983169170    2.10541884960460
H          -5.16412841656634    0.82379950908808   -0.18815069220804
H          -3.92150708865214   -2.96969920250287   -1.41751398011719
H          -2.57219160776258   -2.28073568470092   -2.37493966886961
H          -4.15080751828095   -2.54812551409543   -3.14270765138416
H          -3.60660827176348    4.89778329261892   -4.22535851475037
H          -0.59257511285019    7.07322555987535   -7.12895451671715
H           1.53457605671378    1.82873690930112   -9.58216293197335
H          -0.69466562430674   -1.31205498856321   -9.17246538282938
H           4.24971150140525   -0.10334027054813  -12.90870946404512
