134
 SCF done       -268.218025959683          0.000717773357
C          -0.64764256291299    6.71222290867831   -4.74195696121249
O          -1.36398504717754    5.75000020235602   -4.59918305152977
C           0.78297980967267    6.68407420054781   -5.14484391950369
C           1.25355418966558    7.99436169111189   -5.33224282364879
C           2.56185736050503    8.22160047508871   -5.72692577740811
C           3.38424339698223    7.12244148594453   -5.92678567134825
C           2.93322825776630    5.81728105408036   -5.74338246515281
C           1.61174781784881    5.59553486940023   -5.34957146158111
F           1.18444307752271    4.34872359011578   -5.17370439545065
F           3.75785996425365    4.78562611776379   -5.94322887240721
F           4.64875136776928    7.31904018030373   -6.30811187907082
C           0.16376906424987    8.92658309508499   -5.04294509543967
C           0.27634748671315   10.29404275616123   -5.07453262441726
C           1.45293019688491   10.98662908952378   -5.43166611158268
N           2.37099547016624   11.61516369875313   -5.71429853461665
C          -0.73943935146996   11.22077796115788   -4.75702770797621
N          -1.49352701892051   12.05288813401585   -4.51371716727997
C          -1.00138537354559    8.14950098067634   -4.66785944138346
C          -2.24034977845018    8.68609227509877   -4.43913631190603
C          -3.43544545575040    8.11121273343263   -3.91237193626522
C          -4.61982631029271    8.78871916747782   -4.17117507981381
C          -5.84199867851471    8.30249015631724   -3.68877948254088
C          -7.14557243546489    8.77791429216697   -3.82574375483679
C          -7.63065628689045    9.96326795727724   -4.58333855457600
C          -6.94182900386250   11.26858099529152   -4.13210471116031
N          -7.87789731138456   12.36891268143385   -4.25929986425689
C          -7.47326346698442    9.73477579251628   -6.09945935460914
N          -8.35959481408395    8.66255368333109   -6.51160207806151
C          -7.98985916920672    7.87837448093915   -3.07603830697559
C          -9.32081964571007    7.88762968780927   -2.87051110321618
C          -9.97649958187515    6.86959147013372   -2.00313982257807
C          -9.06053601892867    5.81327246523805   -1.47714213608298
C          -7.73426011865185    5.81434762705481   -1.70022356419458
C          -7.14314087614784    6.83450629460075   -2.48645637440196
C          -5.84366453928593    7.09694187440511   -2.86599389908231
C          -4.61755921613453    6.45302582530333   -2.57671819123916
C          -3.45802044138247    6.94083975133784   -3.08203753179968
C         -11.19800284188491    6.32781802557067   -2.70270274254698
C         -11.32240219027889    5.08040227576538   -3.15520258626570
C         -12.50795742029790    4.56883580512964   -3.78277631838890
C         -12.71277373722322    3.29302592748207   -4.21562353723638
C         -14.00414231320154    3.06755725196650   -4.75563485564180
C         -14.54473101705035    1.86392776435555   -5.25086034807302
C         -13.81729100505788    0.61044250572302   -5.24252211330873
C         -13.82922099751081   -0.36768264458831   -6.19569587724801
C         -13.05508475847004   -1.49205444685670   -5.83661420750040
C         -12.45857614694582   -1.40062637749223   -4.61284434002973
S         -12.84400757076459    0.11946419311218   -3.88138758902110
C         -11.57898351265472   -2.38267577850278   -3.93060941752349
Cl        -12.89123530937044   -2.86152590580274   -6.86713729087257
C         -15.84762650280569    1.92503460604042   -5.73436769225397
C         -16.63220964764182    3.10545753310511   -5.72454456319460
C         -16.09812489271868    4.30635134130988   -5.21203121841260
C         -14.78542686442014    4.24961388935588   -4.75332902169987
S         -13.91162944707759    5.57963549382517   -4.04752197173928
C         -16.86682953747928    5.53080432742485   -5.13256806899871
C         -16.43042400010415    6.80927827522190   -5.33809790508024
C         -17.43970994393950    7.77258936725762   -5.12686811311578
C         -18.64542102848769    7.25691485320637   -4.74741143024485
S         -18.54517212026995    5.53284022889963   -4.65440965510779
C         -19.91353967902545    7.96633016150099   -4.44730682939810
Cl        -17.15509087376186    9.45791423132383   -5.33448537381830
C         -17.91893491818783    2.88874417117363   -6.26778593828448
C         -18.14516630002634    1.59378119423993   -6.64705228371159
S         -16.74860127116941    0.57618734222000   -6.37020677388690
C         -19.33754024589930    1.06359280114810   -7.21237205430130
C         -20.50598364639589    1.75577572699368   -7.48399178081314
C         -21.48112287908608    0.93085875832626   -8.03859575108280
C         -21.05428499882729   -0.40306646923263   -8.18644241466777
S         -19.44942975355529   -0.63048829314475   -7.64229443915334
C         -22.10956670262839   -1.15581240255082   -8.75089749131605
C         -23.20576841250419   -0.28941631013375   -8.97040168454626
C         -22.84880790561048    1.04218562821730   -8.51643837558468
C         -23.64994952423458    2.14779536686602   -8.50789055765677
C         -23.20300472163097    3.39271300266815   -8.02005476103226
N         -22.82977463666994    4.40361843716761   -7.62800178939204
C         -24.97543854376458    2.09356441997679   -8.98689509585191
N         -26.04840988617241    2.02971454718354   -9.38676658655845
C         -24.30798388390985   -0.93486335547384   -9.50553485995907
C         -24.08433572470440   -2.29486442769881   -9.69532213517166
S         -22.44577304696380   -2.75349670465494   -9.22327817913703
C         -24.93298769487800   -3.27397058908856  -10.23705815555201
C         -26.28053405285903   -3.23105999091814  -10.46965696996220
C         -26.84849829427570   -4.20323436818082  -11.44162078341286
O         -26.29459310742136   -5.17016764628410  -11.90188161904647
C         -28.20831411010120   -3.69021814388512  -11.74213090408910
C         -28.48269997857453   -2.57948921161645  -10.92342515565813
C         -27.34800526897651   -2.37193644036951  -10.01835205771873
C         -27.42163971742335   -1.69021367997397   -8.83062987785513
C         -28.55814006612204   -0.97401891670945   -8.39813308794190
N         -29.45558177290065   -0.38357303767359   -7.99603534727758
C         -26.40822682696648   -1.70944125425919   -7.85254554581529
N         -25.61788497818129   -1.71576606966096   -7.01993874976666
C         -29.67456429910808   -1.88730320111405  -11.04330063330080
C         -30.59091358156256   -2.32915635281548  -11.98752280385940
C         -30.34420477689322   -3.43772066793422  -12.79513818327127
C         -29.13537987308528   -4.12712764083247  -12.67196349885797
F         -28.90157363015454   -5.17864894718362  -13.44959684718108
F         -31.25542999303851   -3.83538300518000  -13.68632450628408
F         -31.74356119764747   -1.67300223946428  -12.13135738246500
H           2.96699955377996    9.20666773872275   -5.88706488578679
H          -2.35071494244305    9.73084910203211   -4.70556313390364
H          -4.59399312394540    9.68970014672559   -4.76636668770609
H          -8.69873483830977   10.09012332119567   -4.39005959670799
H          -6.01194911345391   11.41707804429394   -4.70370656384579
H          -6.67576232988562   11.18513502077892   -3.07474079653443
H          -8.09728669145783   12.54358388546577   -5.23395858313923
H          -7.48861377471402   13.21916682192839   -3.86923264616254
H          -6.41217819938797    9.53996512619467   -6.32790793667312
H          -7.77838083678023   10.63782594514150   -6.63509719710861
H          -8.07704053212967    7.78864925637839   -6.07938598712831
H          -8.33322916476867    8.53997361729972   -7.51730865051346
H          -9.96337687845182    8.63278902890175   -3.31816597757170
H         -10.36085046065608    7.42752973091746   -1.12956677114015
H          -9.52400252553710    5.05117036890147   -0.86916913282762
H          -7.10308875511348    5.04247312643647   -1.28510212483548
H          -4.61488640891988    5.58122596584731   -1.94010862295780
H          -2.52582488402534    6.46183105577221   -2.84092808872005
H         -12.00753026367187    7.03250720711539   -2.84021702768887
H         -10.51551239506029    4.36879942483750   -3.04302893498597
H         -11.95539956068388    2.53420229040070   -4.14872925216642
H         -14.33534982138879   -0.28696997054813   -7.13949622519496
H         -11.66620069104062   -3.35140677294538   -4.41660805573877
H         -11.85284035178331   -2.48072660933386   -2.88178724885284
H         -10.53719083574817   -2.06332919034608   -3.97856927871120
H         -15.44072174619672    7.06474633676051   -5.66747136395864
H         -19.77393336320237    9.03678473219298   -4.57496982996899
H         -20.23113438202812    7.76987153233268   -3.42364024934236
H         -20.70740319428837    7.62964336110807   -5.11337766690214
H         -18.65266091161061    3.66312332771080   -6.38262548196710
H         -20.63034164413686    2.80335648462887   -7.28349282932237
H         -25.21841746681861   -0.44537171106548   -9.79886149673239
H         -24.44891725955086   -4.17755469181714  -10.59644935200591
H         -29.91317358129841   -1.02083968945432  -10.44874817634323
