106
 SCF done       -220.579161869744          0.000831869973
C          -7.88882396590306    0.66988831810822   -1.09232319597813
O          -8.58784352792971    1.60983128547120   -0.76503393080618
C          -7.98256277515574   -0.04906543512607   -2.38623126053605
C          -6.97604918204146   -1.02452864080059   -2.46782118442965
C          -6.86240317853167   -1.82954276567946   -3.58777265251969
C          -7.76842680435787   -1.64526465544528   -4.62358743630062
C          -8.76773754007833   -0.67866866322727   -4.55862670618673
C          -8.87604061022022    0.12625126336557   -3.42475952260919
F          -9.84549762104314    1.04279512328826   -3.37288933995724
F          -9.62049876664661   -0.50801840780555   -5.57818454387424
F          -7.68947331296722   -2.42193710053142   -5.70326899014205
C          -6.19543824245510   -0.97557283048784   -1.23097747986451
C          -5.04308982478326   -1.68919081378628   -1.01278603377507
C          -4.50493829336021   -2.62338069528724   -1.92295844534753
N          -4.01812680541129   -3.40867280594193   -2.60431558238010
C          -4.19505781360255   -1.58262309041351    0.11056172698137
N          -3.43086598169775   -1.55441982166220    0.96817444758761
C          -6.81014173681463   -0.00298160197326   -0.34983631802318
C          -6.45201136084347    0.10232424877998    0.98092937693022
C          -6.83206367678278    0.96649514244246    2.01938950415548
C          -7.62450875646618    2.09940951178303    1.92323707870041
C          -7.93772878785591    2.93498103260621    2.97595654817242
C          -7.44547295518271    2.69987905288364    4.33689074813573
C          -6.64955459531776    1.66075615811189    4.67961668706471
S          -6.11103650862061    0.47675221778119    3.56900122137863
C          -7.97075532854815    3.76539112585312    5.11132672236676
C          -8.73283903712482    4.62370530101170    4.30287513588750
C          -9.28958817166312    5.68509305605177    5.05713302124579
C          -8.94025882041876    5.61159601467859    6.36587458963831
S          -7.92785507125240    4.25851663863755    6.75293352571157
C          -8.71935805823443    4.12333654491003    2.96048804606514
C          -9.32697532550682    4.64550666701333    1.79840106841262
C          -9.93010893951188    5.85851157042376    1.68595969575572
C         -10.51044452014052    6.35155754079617    0.48825928844541
C         -10.68520361441036    5.70270362060930   -0.71041145241771
C         -11.28830394676138    6.49547392870726   -1.71240020337591
C         -11.56598547519057    7.80380798545089   -1.22934999455331
S         -11.10230385743661    7.99990850606740    0.43282559369170
C         -12.12703486775091    8.84522921908416   -1.95646825272800
O         -12.28291424494954    9.99206399353280   -1.24411085502831
C         -12.79689136477346   11.15994060060893   -1.83180374295237
C         -12.45103716388494    8.57571244036715   -3.30125036341862
C         -12.19615167567175    7.25960778009230   -3.76936599942590
C         -11.63729368297484    6.21575886988569   -3.04890015797093
O         -11.52271935429039    5.06758370289192   -3.75530851970683
C         -10.84375683735863    3.94601214759062   -3.23987228034205
S         -12.62354995997602    7.04618151830092   -5.43599799474291
C         -13.10794764300740    8.72972414598935   -5.54134643361027
C         -12.97280505273119    9.38184890403809   -4.34437539136918
C         -13.47772703731738    9.27386871137407   -6.80716644862210
C         -13.37486870634857    8.51563986190727   -7.95147143577711
C         -13.51519678308921    8.99563611499400   -9.24598347636447
C         -14.08092330154292   10.32193877429426   -9.48884003707720
C         -14.32457835982870   11.22123676720468   -8.50711998746941
S         -13.96766080950682   10.94830664162028   -6.85075295382886
C         -14.23962454764054   10.41256388115041  -10.90176989623946
C         -13.74169231264357    9.25958109151979  -11.50745543272926
C         -13.83131478092092    9.31622633723381  -12.91388759057070
C         -14.39006350825082   10.48393879268308  -13.33096250154350
S         -14.81410050472175   11.55962360861295  -12.04493500116087
C         -13.23290989450937    8.37031915986207  -10.48769299303202
C         -12.44218891293966    7.24089717813654  -10.73946378697450
C         -11.65179227509687    6.61499434873104   -9.80252317170370
C         -10.78305281048917    5.56259288163889  -10.06314279792874
C          -9.93366528479264    4.94711279342413   -9.16085844009695
C          -9.30382064364944    3.67841173083079   -9.58376562095592
O          -9.31461748017697    3.19666938359569  -10.69253155751426
C          -8.68113282064635    3.11834718121024   -8.35578285020240
C          -8.87603415002403    4.01789413017814   -7.29412682527680
C          -9.57509148885626    5.21309769895945   -7.79636417432068
C          -9.67945998157258    6.37139824274731   -7.05398500877220
C          -9.29726203896088    6.49158039953649   -5.70138125686033
N          -9.03743668293162    6.69123754741712   -4.59932999096477
C         -10.08815405543232    7.65151922765838   -7.47513449801957
N         -10.35861496730694    8.75045604262391   -7.68544055862855
C          -8.40141187901399    3.71623382378849   -6.02960387032548
C          -7.72594895231987    2.51859871811555   -5.85340167041940
C          -7.51629551648084    1.62327920974710   -6.89543429643593
C          -8.00621799451938    1.92613022587018   -8.16818735649220
F          -7.80323159579810    1.07227438432966   -9.16513070784701
F          -6.84598256854354    0.48528992174616   -6.67332937188975
F          -7.24975509733739    2.21185495088581   -4.63498001791475
H          -6.10789094086064   -2.59096728228716   -3.69238599084120
H          -5.74343551128391   -0.65002435909542    1.30992644807134
H          -8.01512189542415    2.32312272609351    0.94160932755217
H          -6.29300226333120    1.51049030865937    5.68672144080324
H          -9.92307940754437    6.46171592321051    4.67081647844195
H          -9.21848020393869    6.28038013169865    7.15684034950816
H          -9.27033213783664    4.01643924336018    0.92187195177791
H          -9.95476496078538    6.53028737324827    2.53004812985938
H         -10.38301765510810    4.68269663398044   -0.84204052961463
H         -12.80356812065570   11.90054705780834   -1.03256225358526
H         -13.81954923602845   11.01294017644308   -2.19194717628474
H         -12.15657891657722   11.51632110486450   -2.64390618004293
H         -10.82745669954255    3.22531864143627   -4.05524751466591
H         -11.37614953994488    3.50463892338595   -2.39416277454048
H          -9.81981494671795    4.19425818921507   -2.95207977747728
H         -13.22298036068245   10.42235875441995   -4.25725632520433
H         -13.16280350766479    7.46914100214418   -7.79702409364198
H         -14.72063892168478   12.20462920032768   -8.70484476524376
H         -13.50956973828280    8.54124968797749  -13.58531553119354
H         -14.58582142545378   10.79436861694147  -14.33866758512455
H         -12.37914938256467    6.91024096728953  -11.76913521850661
H         -11.66242141910650    6.98828948591243   -8.79738531672483
H         -10.78737334128386    5.11519536378728  -11.05167874081908
H          -8.53031708730198    4.36504451705002   -5.18127853013474
