102
 SCF done       -197.983917641790          0.000547129361
C          -3.56260996269016   -7.51562349895204   -1.42329101919021
C          -3.50700262420647   -6.16703484223867   -1.24517187640723
C          -2.45521224653878   -5.77308822966584   -0.40077910782199
C          -1.72486926781969   -6.85846194469414    0.04906610990066
S          -2.32829384860452   -8.35481717947591   -0.56287060996638
C          -0.62313792664319   -6.60772507161157    0.91139755175617
C          -0.35369994732749   -5.28988580432079    1.24970243177246
Ge         -1.67448651700871   -4.13090497652755    0.35734616907819
C          -2.87475418888484   -3.17930259764731    1.61881094872709
C          -0.86933284979038   -2.92733213562298   -0.99958636182372
C           0.75266619826061   -5.17874956960933    2.08993203744257
C           1.33346343265495   -6.39276081550615    2.39694028385084
S           0.48497516865193   -7.71473043443765    1.62841620030783
C           2.47639872432611   -6.64389296972727    3.19845242484169
C           3.07009285683996   -7.86451761334697    3.46439843588270
C           4.20065549685533   -7.76491100554613    4.26708609102954
C           4.47808680690479   -6.44924253854116    4.62679481941139
S           3.33356107201972   -5.33471291126284    3.97084121010584
C           5.62000217859932   -6.19795650436164    5.42026994664826
C           6.39569358936568   -7.30902476433940    5.77860118686539
Ge          5.57499430045474   -8.93997914594492    5.04400694967585
C           4.87323595524967  -10.17127517188373    6.43329678748871
C           6.69350688214004   -9.85686850568419    3.68508240399083
C           7.49478573454366   -6.93537537610777    6.51889866495201
C           7.58648686156939   -5.55915728726306    6.74941162693920
S           6.23636532067949   -4.71226069454277    6.01924119611917
C           8.64969089531143   -4.95671870546163    7.44542403233203
C           8.91945755108539   -3.63093875434052    7.80701242197625
C           8.05649677586899   -2.51335434027516    7.53072178428635
O           6.99211131610150   -2.57967842696455    6.92693335735249
C           8.56096385939336   -1.22262491930313    8.04639141629626
C           9.80106560770365   -1.08248501853671    8.72820335656662
C          10.03703831530188    0.21907282687000    9.09802218729804
S           8.77299811699152    1.28766505604091    8.63346940897556
C           7.90613648440695   -0.01887480922003    7.92822750144739
C           6.58366914390841    0.25316285678336    7.28443432477070
F           5.57532059823669   -0.41008993713126    7.85801613781267
F           6.26984676265037    1.56138498864544    7.38526591286972
F           6.56741849705015   -0.02742531183850    5.97857758958628
C          11.22396602171835    0.76416412332182    9.82700782708399
F          12.36872126198195    0.59523161506412    9.16002428209559
F          11.09546880039605    2.09367641934349   10.01403025960130
F          11.37741718589448    0.23448345615377   11.04370953373529
C          10.69970919546193   -2.23017166632055    8.99129185404018
O          11.76814241458313   -2.11576018366737    9.56328367087582
C          10.16035582583592   -3.48368357467076    8.49845612329462
C          10.83915147703216   -4.68117060188522    8.66526934566817
S           9.94627896294344   -6.01209439835124    7.98481363898340
C          12.06526872710864   -4.87416761546313    9.25681024130937
C          13.15755375070997   -5.11586231001965    9.73784967277809
C          14.40973452420028   -5.32648127190138   10.27084689484876
S          15.37058868748779   -4.00178046650029   10.87525549580096
C          16.66973637863562   -5.09817961352797   11.25604779827226
C          16.34757803265152   -6.40573206893546   10.93190080440253
C          15.07966847414307   -6.53352367760996   10.37990483525699
C          17.86083243837724   -4.64801887411768   11.79669242371482
C          18.91296707901684   -4.24580933480310   12.25386172464883
C          20.12607587455875   -3.80215631828623   12.75971220166069
C          21.19962305650547   -4.61205997245658   12.91731585064532
C          22.46464612367846   -4.19670381234737   13.40667659412219
C          23.59839268263110   -4.97662337248912   13.54365046384050
C          24.70000649088140   -4.28194743578343   14.03780554454272
C          24.40460882434591   -2.94841854923674   14.28666590278038
S          22.77401800470837   -2.54946831171049   13.91132438205431
C          25.44542832920155   -2.12413622041640   14.79471607785468
C          26.68558261754960   -2.70127780676667   15.00270256259279
Ge         26.59214607949697   -4.59900105704955   14.48808812085733
C          26.85691949555006   -5.85871245246956   15.99920816565604
C          27.70901060617719   -5.05455430005876   12.91138861667292
C          27.61401350350780   -1.77397348823055   15.50459403145512
C          27.08083519897210   -0.53192543536948   15.66894117023953
S          25.42162298640019   -0.45077203739934   15.21488337927424
H          -4.25747774102965   -8.08149578640203   -2.01257280918693
H          -4.19638751254501   -5.48032091006410   -1.70487687385386
H          -3.69246967594793   -2.71125891624128    1.07956005252873
H          -2.32333528089494   -2.40823391008017    2.14777167614797
H          -3.28727505829126   -3.87287982312683    2.34456380507793
H          -0.21766140422849   -3.48722501647485   -1.66284735354019
H          -0.28677126178002   -2.15251732181553   -0.51105599103067
H          -1.64642214181969   -2.45410427763762   -1.59172009368028
H           1.13578497236251   -4.24738486335655    2.47035594944586
H           2.68218835559784   -8.78921381767241    3.07254396745261
H           4.27323168427321   -9.62341519003119    7.15301088564271
H           5.69334817049763  -10.65250559338205    6.95715525921894
H           4.25592350502152  -10.93913244907880    5.97730869962408
H           7.05632047466841   -9.14308229247542    2.95237273308326
H           6.11300569955941  -10.61787123745844    3.17274406754614
H           7.54562640083319  -10.33323601133575    4.15989936062136
H           8.23112897130938   -7.62676353761278    6.89355183546374
H          17.02538537918245   -7.22429012626783   11.09662507158006
H          14.64473846129767   -7.46364237649393   10.05933915245245
H          20.19125569690709   -2.75264116392984   13.01996909708858
H          21.11970511618254   -5.65766086631936   12.64743714605437
H          23.61343306637211   -6.02163425698745   13.28485997201938
H          26.22547890397954   -5.58340534661567   16.83785752568970
H          27.89294095193042   -5.84224079832158   16.32294561071030
H          26.60746181460263   -6.86961359452342   15.69206393500467
H          27.52854412595186   -4.35150984355263   12.10453129661843
H          27.47336780009316   -6.05467836632441   12.56113273583824
H          28.76164164753292   -5.02016682650358   13.17433024150505
H          28.63713695944949   -2.01476412380100   15.73577918566772
H          27.56103768331090    0.35532534168713   16.03297043535431
