104
 SCF done       -175.544766230083          0.000509637776
C          -0.43245135134469  -10.70331241497751   -2.30722161891633
C           0.54653906444906  -11.55372534170691   -1.89356190072289
C           1.42361070411510  -10.96391254114421   -0.96738394549660
C           1.07852248060945   -9.65196923323682   -0.69700152232638
S          -0.31700323746991   -9.14650740394917   -1.57706457676765
C           1.88307147987850   -8.92904628203480    0.22588890260395
C           2.96311546677159   -9.58626866475953    0.79410488410682
Ge          3.02005425731111  -11.42470133061231    0.08903568479041
C           4.63057154387799  -11.80200975855896   -1.00786375659744
C           2.69186580744165  -12.80920221222090    1.47312343947564
C           3.66971675796233   -8.77130817671186    1.67786434666589
C           3.14396664007445   -7.50117727374526    1.79357437795624
S           1.73328233939131   -7.30320261890789    0.77950866460365
C           3.60547268911056   -6.43022512411730    2.60224836718863
C           3.06282089715487   -5.16762404675986    2.73624716855350
C           3.75914662207891   -4.35627521441444    3.62865868879136
C           4.85413678034794   -5.00623323935796    4.18402289023414
S           5.02400735076297   -6.62291709478586    3.60391115405298
C           5.63982219350396   -4.29536075272043    5.12286829484519
C           5.25590042621680   -2.99661774818951    5.43782324525458
Ge          3.66677470427837   -2.53451647443636    4.36948521993484
C           4.01920655953114   -1.11880493834360    3.02391673478538
C           2.04132935525108   -2.18323980994977    5.45224739853178
C           6.09545954585094   -2.41707678609684    6.38385299593016
C           7.12081954645242   -3.24832808678317    6.79324048328579
S           7.04594876977246   -4.79743181041239    5.98620637259957
C           8.13995990631452   -2.97456682607592    7.73887893264928
C           9.22765542877210   -3.75889193187031    8.07101845130215
C          10.02445211802016   -3.16482147062155    9.05204970608221
C           9.53402727013263   -1.92051984608248    9.47800462645854
S           8.09880248189082   -1.47441179063065    8.66080469934802
C          10.40013388329423   -1.40810385437146   10.47387197412675
C          11.44665974285697   -2.32193121380831   10.67387510135224
C          11.24613454673579   -3.45620879539759    9.78570112749339
C          12.03762786675997   -4.56157094407352    9.66569163924621
C          11.74143403579977   -5.60683529353687    8.76688005117118
N          11.51105979856233   -6.46390506704312    8.04015000100877
C          13.20900896323640   -4.73682433460149   10.43068808513559
N          14.16477608383412   -4.88949273291010   11.04605827558084
C          12.35472830207669   -1.90700184515660   11.65035748608259
C          12.00444772873816   -0.69026565519613   12.20311929933068
S          10.52845437145861   -0.04110111251384   11.49431624138547
C          12.66888870990577    0.02950236761882   13.22680465801996
C          12.26157210123213    1.19637422307949   13.84541577229811
C          13.13959039333302    1.63774144833367   14.83009280688591
C          14.24069187812854    0.79926058274728   14.96388995273385
S          14.18891934600827   -0.53904698847007   13.87698874197196
C          15.21363266256616    1.13846784489514   15.93469376567297
C          14.99862621439017    2.27837168976052   16.69918836369268
Ge         13.29625012634317    3.09681985791628   16.14383270201262
C          13.49337013315954    4.89572413773077   15.32961984736762
C          11.89279323239272    3.03304319351258   17.54562701890837
C          16.02598125391288    2.50058112763906   17.61276392583013
C          17.02622397143368    1.55024083650278   17.55781279025081
S          16.68914431580879    0.34109937917006   16.34251890947114
C          18.20826214369612    1.47647109053588   18.33970173279411
C          19.22230791933814    0.54384430910041   18.26891199626169
C          20.24536022391300    0.76502825617715   19.19037063532911
C          20.00858644257686    1.88148030561591   19.97702458958605
S          18.52484013066183    2.66542818531827   19.58214230462783
C          20.97681020851633    2.21445819637354   20.96356308806371
C          22.09284878366294    1.40484850663509   21.07450699998266
Ge         21.96329409079350   -0.03149665817747   19.73380527173155
C          21.78630668410736   -1.84959622164176   20.50998144709574
C          23.35738243820294    0.06432944052669   18.32402646232861
C          22.95973775714389    1.84767391694871   22.08811633114681
C          22.50332864909086    2.96261499331489   22.72164080720148
S          20.99332416036557    3.51312367129244   22.09965051750468
H          -1.22666440590437  -10.88988126139789   -3.00342647962738
H           0.63575765098016  -12.56832979407646   -2.24132557329697
H           4.52334697754466  -12.75338958212741   -1.51946925704599
H           5.51117150893022  -11.84726801548430   -0.37470244186284
H           4.77400340587460  -11.02194392347916   -1.74872815280260
H           1.80624223679031  -12.56337588583424    2.05042322394665
H           3.54052021440766  -12.87232610887000    2.14705619276911
H           2.54669863215360  -13.77936447357844    1.00825279536559
H           4.54155335064113   -9.08403289742313    2.22680851456058
H           2.18312294819230   -4.86109817310580    2.19648553495420
H           4.91826411245531   -1.35012945289243    2.46145798102075
H           4.15144445153486   -0.15892269597167    3.51340162787498
H           3.18580405123943   -1.04285236587242    2.33243771305646
H           1.88928186559132   -2.97849659549714    6.17497205415268
H           1.16885806094123   -2.12513416182008    4.80892751972137
H           2.14192139140088   -1.24238196310142    5.98441477652192
H           5.97614784379003   -1.41878799233827    6.76960975113056
H           9.41620327445916   -4.71126900460115    7.60887533023401
H          13.22762898229989   -2.45298298266108   11.96038014991180
H          11.34625511089895    1.69799142056555   13.58047422880255
H          14.26855880596501    4.88440187483264   14.57012015852456
H          13.76066559108467    5.62301114563172   16.08991502515907
H          12.55900888082914    5.20307602993653   14.87024455422825
H          11.81699229485811    2.03152766480170   17.95716621224684
H          10.93080167920682    3.31148460148242   17.12662617718117
H          12.13297097730052    3.72246428598844   18.34899021131085
H          16.05722985875484    3.32706431720163   18.30205338883883
H          19.20661673826076   -0.26879208738448   17.56278824628350
H          21.01429734918765   -1.86184423576742   21.27266360243638
H          22.72480281353482   -2.16005173422043   20.95862563180891
H          21.52156889086538   -2.56191525730797   19.73474893120821
H          23.42407161549292    1.07204142347688   17.92652361844473
H          23.11564549217229   -0.61498197460926   17.51254252786089
H          24.32422159276080   -0.21428323927308   18.73153883849479
H          23.88563580482757    1.36037126463248   22.34023798854483
H          22.96019605812387    3.50633123057401   23.52534026826384
