95
 SCF done       -163.322563446999          0.000937975767
C           1.69945364675629   -1.23483031714970    2.00153916391123
C           2.70383016553314   -2.15797020002768    1.31084248160279
C           2.73410338425096   -1.93585746466260   -0.17332020803346
C           2.29263247001260   -2.94361920903348   -1.03673360196569
C           2.28711200678107   -2.59101388347456   -2.37007426431015
C           1.92955903995029   -3.33949300395040   -3.52208997319667
C           1.64557605284433   -4.66315339763081   -3.52875998893919
C           1.32903957803422   -5.46945347000961   -4.66941496552345
C           1.18036447988708   -6.84400834001406   -4.48693527092828
C           0.85915514341420   -7.70799100430241   -5.51734130895438
C           0.64500450097162   -7.25447879728686   -6.81352729306945
C           0.29411631652802   -8.17239120095033   -7.85230659789378
C          -0.36771394920379   -7.93400593870112   -9.01373366453706
C          -0.24084156632662   -8.89209181316938  -10.14441796347743
O           0.17216837912358  -10.02906698995203  -10.09570835128395
C          -0.66647440504252   -8.13450328768412  -11.33851575740549
C          -0.61190032115244   -8.51874719901276  -12.65653234328240
C          -1.04620842806602   -7.60594268795967  -13.62302783827091
C          -1.08575622679223   -7.74955419049022  -15.03946217004957
C          -1.56102242162732   -6.64926055925989  -15.66142241400236
S          -1.99106400932033   -5.37148901947632  -14.57649650919015
C          -1.52140906497913   -6.33806468542776  -13.21267536657047
C          -1.58953573237524   -5.95209802224416  -11.87901085367365
C          -1.15612114239763   -6.86471699785674  -10.93735792128770
C          -1.11710705488279   -6.78722308615133   -9.48174574549312
C          -1.85557576759520   -5.92607054996498   -8.71018866182385
C          -1.97989515456246   -6.05289973157238   -7.31321472856896
N          -2.13478230290931   -6.12963132053000   -6.17799477439236
C          -2.55340131830649   -4.81636423655815   -9.21806602226814
N          -3.08642366634847   -3.86593934972460   -9.58341019689221
C           0.85043351276012   -5.86504417164315   -7.06210026002243
N           0.81083179978214   -5.40643070477287   -8.32563447501173
C           0.91186502005072   -4.12359951887608   -8.55846871801092
C           0.87027072245098   -3.66951768552389   -9.97888937654372
C           1.04311778837830   -3.21217660041014   -7.47549971792938
C           1.03520884351810   -1.73479237603939   -7.68339275715574
N           1.20634695620666   -3.65405313862342   -6.25596394570015
C           1.14623845964433   -4.97139825398247   -5.99718471765933
S           2.78608437639679   -0.93481204585617   -2.55550555857444
C           3.07919308227029   -0.76684360258045   -0.84929420746934
C           3.64340868388298    0.46734697479597   -0.37074352557174
C           4.27096438175386    0.62302101432191    0.85774179710111
C           4.81082733410475    1.83518995892811    1.26150470137510
C           4.77535201698313    2.98269877967727    0.48219707248747
C           5.35947051693616    4.20676874590604    0.95758655736169
C           5.39367492813002    5.44173483392497    0.35760555893168
C           6.06438743673973    6.39089208422994    1.13542346248698
S           6.42719932348482    8.08096761406737    0.91247667943549
C           7.23894213520396    8.10649675717397    2.45146955265922
C           7.90819948079720    9.10617146906654    3.18271007914194
C           8.38524650455442    8.61946597147786    4.35768606501078
S           8.03837394981267    6.94181266569429    4.61110665383052
C           7.22160291655505    6.86921777330754    3.09270165511675
C           6.55220799244749    5.89100985623580    2.34311540857129
S           6.17438132865215    4.22219430876463    2.52365537190651
C           4.16233817675372    2.86737786540648   -0.80048708872081
N           4.11134028892179    3.91513543171362   -1.64393547205835
C           3.56845875621780    3.77934069531916   -2.82615344882312
C           3.54443180008537    4.97448198129465   -3.71999246837120
C           3.01964058052889    2.53323198688384   -3.23590697432080
C           2.38769858633908    2.33594655640483   -4.57146488805789
N           3.05771626707589    1.51120815680017   -2.42354525947046
C           3.61540924166472    1.62186104504688   -1.20981222449874
H           1.67777835203267   -1.43494406902094    3.07030389310600
H           0.70344991249296   -1.40242579491954    1.59804907735646
H           1.95817055651137   -0.19007633758279    1.84900875405495
H           2.40818328733632   -3.19405393692404    1.48942691425401
H           3.69627941506664   -2.03317790562267    1.74844220074877
H           1.97599486789150   -3.90858930842245   -0.68136409930982
H           1.91308231071934   -2.79878828967509   -4.45601642912986
H           1.68222890708353   -5.20656559211283   -2.59242809379521
H           1.30997410819977   -7.24792337715813   -3.49294714926536
H           0.72632041657480   -8.75920314639657   -5.30616351652448
H           0.66580956465587   -9.18611242897469   -7.73544535036713
H          -0.24353573985060   -9.49420216326566  -12.93438587644076
H          -0.76916210889263   -8.64058980578594  -15.55092830173183
H          -1.69332750248138   -6.49224042138714  -16.71426889864414
H          -1.95802566042856   -4.97543337294439  -11.61165750647867
H           0.88869506048608   -4.53323191075757  -10.63853704125098
H           1.71752089577200   -3.02332906825876  -10.20095578802348
H          -0.04350187089337   -3.10285438226612  -10.15878046183715
H           1.87330186773314   -1.43240734932107   -8.31017079638466
H           1.10701009532499   -1.23302850107673   -6.72270517492891
H           0.11498175455428   -1.43337620711141   -8.18144243723215
H           4.37874298712052   -0.21514146262666    1.52246861767200
H           5.28752767670960    1.88369084666542    2.23048697862298
H           4.94988424568370    5.62871437785195   -0.60075057192745
H           8.02609413438880   10.12183788521405    2.85371910267038
H           8.93238124004612    9.14727215249406    5.11308763391162
H           4.01934962209381    5.81484640955096   -3.22208952693405
H           2.51795765932617    5.23897799279566   -3.96991287830391
H           4.07248773581466    4.76268482574444   -4.64850508878609
H           3.10226702582368    2.55106012391326   -5.36452531849841
H           1.53862047426004    3.00705976551019   -4.69235439743495
H           2.05097288929841    1.30705597990835   -4.65630089278542
