90
 SCF done       -193.222015546912          0.000617273442
C          -0.23734558186758    1.25492840065732    2.11001894514750
C          -1.44475630119091    1.86795104267618    2.23162901054668
S          -2.17743926170453    2.11550659454409    0.68756385902279
C          -0.83032080674485    1.37086869909324   -0.14276533589354
Cl         -0.81010163795897    1.20009945404460   -1.82731826037454
C           0.11527376642265    0.97070779235078    0.75246133390327
C           1.40844649788746    0.28482176536275    0.70590762502685
O           1.99083711707916   -0.10304018287501   -0.28575507362348
C           1.83983058930979    0.18357641639635    2.12312684878719
C           0.81476017131366    0.76211800800320    2.97610219339899
C           0.76643530789024    0.81729792074936    4.34659218063867
C          -0.30810310181923    1.44296120322370    5.01422376267805
N          -1.15447478077729    1.97337693523888    5.57837532878963
C           1.70167529349429    0.27452735682711    5.24236368419268
N           2.41043426124300   -0.16608365695388    6.03444307681232
C           3.02842258206218   -0.30377404205793    2.60562356766566
C           4.09029944057117   -0.97835890918773    1.98380027490546
C           4.28895322598507   -1.49456185861683    0.70311748334247
C           5.47983607574992   -2.19278497297022    0.59298164491784
C           6.23077797106793   -2.18959935451691    1.79710866323205
S           5.45261976716249   -1.35848716560947    3.05576484391672
C           7.40566072635667   -2.91911941600650    1.59962617616299
C           7.43238038833169   -3.41360362599019    0.27339072282443
C           6.19888565388946   -2.99339272633052   -0.38555864970467
C           5.76956916041862   -3.36569608006653   -1.62464022614597
C           4.48455197031566   -3.04252645288280   -2.11005072261753
N           3.42628424271200   -2.83151417166195   -2.49710027517460
C           6.56654999700742   -4.15190145309000   -2.48312790781980
N           7.22239762726397   -4.77489226722199   -3.18774147217254
C           8.54919010162470   -4.18860166273903    0.01979503295395
C           9.38121812696150   -4.32185893658133    1.14422760272119
S           8.74894084402823   -3.41637019374296    2.51917253282656
C          10.52882890770582   -5.11501168573551    1.25299436126383
C          11.20866909762343   -5.37921317147497    2.42645108183503
C          12.25647603847148   -6.30226992406417    2.66006625775644
C          12.57787639472227   -6.47837142956923    3.98069646051681
C          11.80244362369101   -5.69715821314692    4.85638940633966
S          10.73034439423785   -4.66383009203243    3.94303296892429
C          11.61023641683375   -5.68602928821247    6.23348324539682
C          12.16366081970802   -6.41005610478114    7.30470787729614
C          11.50361187630152   -6.22404773867749    8.49089860753774
C          10.37748486470356   -5.37007114934653    8.40687899695731
S          10.28271487894747   -4.69880157149320    6.80102698769549
C           9.37631661113577   -5.17616365619012    9.33886844971656
C           8.13660188126601   -4.57758041853767    9.09159451393805
C           7.01459974686107   -4.63249533209660    9.93560195590897
C           5.86956131697410   -4.15659791518155    9.32677412140839
C           6.10052918768364   -3.68554872780482    8.01009261836186
S           7.73742742523132   -3.82320211855157    7.54642895794386
C           4.87165073792284   -3.36922330808286    7.41772421706873
C           3.83441689267157   -3.62573568757145    8.35126351999050
C           4.43384159205062   -4.09503527351781    9.58614282405413
C           3.79683587637778   -4.44074280792437   10.74227784638114
C           4.50281888567276   -4.90057827485385   11.87322864507671
N           5.07836833577826   -5.27655176476448   12.79113095715494
C           2.39516865385454   -4.36397245238245   10.88428948422060
N           1.25706652810082   -4.30855770199774   11.01010931706758
C           2.57359383157932   -3.44825100657521    7.80258490122369
C           2.62291002327000   -3.11956018955936    6.44929403165932
S           4.27943170265648   -2.89330263949056    5.89586405167339
C           1.50172201758635   -2.95592456521834    5.61599853884763
C           1.35998613683559   -3.03403181963261    4.25509965594877
C           0.12606841790082   -2.44816803421589    3.65281760807389
O          -0.79813385073405   -1.94704683439598    4.25316910176920
C           0.31777397267329   -2.56835483606155    2.20402830922742
C          -0.39340906904513   -2.31117220066659    1.06952337801335
S           0.48501176583433   -2.83214475823978   -0.34711376879334
C           1.79123213854337   -3.41420838831035    0.61148511337264
C           1.57411007390715   -3.20354593870691    1.93892548087775
C           2.18806690505539   -3.57573857152656    3.20179227330275
C           3.21143888110824   -4.49413931592047    3.29658313525665
C           3.99862329575214   -4.83523762816258    2.18387789189097
N           4.70899104309362   -5.07029594827129    1.31094204008806
C           3.50819275554935   -5.25299463109659    4.44222652776960
N           3.72689891509709   -5.96497798674256    5.31751655668447
Cl         -1.94172051418637   -1.62793474936975    0.95385555088920
H          -1.96075754194353    2.18874965781764    3.11443843146645
H           3.19070376351406   -0.16054581016763    3.66812283262066
H           3.57946266181232   -1.33725932438771   -0.08927928232976
H           8.77063796751901   -4.67201355173534   -0.91470010033920
H          10.86179188441684   -5.61621315920684    0.35417732351036
H          12.71691147919937   -6.84331896254929    1.85229441967055
H          13.31833819092956   -7.17357540097543    4.33424262249850
H          13.00598123671493   -7.06668206803116    7.17846068021812
H          11.76340116394109   -6.72133701004128    9.40880794902741
H           9.50869297428232   -5.62346257178818   10.31509807493101
H           7.06309820035484   -5.05489938830595   10.92312638333602
H           1.64407833131109   -3.60482754829181    8.32015976097736
H           0.58518059018345   -2.68899371862054    6.13719992417619
H           2.62771023662689   -3.87122975279045    0.12178845208568
