144
 SCF done       -294.548275114307          0.000611359310
C          17.25126765044112    2.76143557859217   -3.98138018721288
C          18.49316056457057    3.29913151367966   -4.11776048279255
S          19.12015875607982    3.02959427141094   -5.70380053141071
C          17.67856214659777    2.17181071231505   -6.19750336260798
Cl         17.51783516373155    1.53753612860548   -7.75989288522329
C          16.78430837795337    2.11614083443410   -5.17154336508963
C          15.44540987945490    1.56604039162451   -4.94143295163381
O          14.75652683351266    0.95388293689020   -5.73079194641973
C          15.11940926797372    1.91488919358253   -3.53921251876840
C          16.23320886726174    2.64631010959169   -2.95453412321985
C          16.35601119752783    3.15404427146454   -1.68719145767013
C          17.51960606121436    3.84485395466472   -1.28788833855588
N          18.45698972661679    4.41261140908170   -0.94796672375689
C          15.40237788624203    3.06697389935305   -0.65446736489396
N          14.67602816678132    3.03588468194483    0.23508392031360
C          13.96213926268186    1.60375507813535   -2.88155421094902
C          12.80995363387155    0.91760866076285   -3.31688511999046
C          11.73902023352983    0.69528758605038   -2.46976316972676
C          10.67211950793856    0.00212153189111   -3.05931447979692
C           9.42349659456292   -0.33643502907992   -2.48160197141116
C           9.12413285838582   -0.10827899024813   -1.08562540109677
C           7.92804113393879    0.24020034138180   -0.52255010888820
C           7.98305472679235    0.29857883817915    0.88575861678438
C           9.20081659796357   -0.01457889407497    1.41892741269459
S          10.32211608244307   -0.37979617381468    0.15449196093669
C           9.61075154658112   -0.06407600581623    2.84421912989015
Cl          6.61578480267895    0.72643114296266    1.83983737256666
C           8.50212433596085   -0.93783498845722   -3.32839305202046
C           8.77482414984278   -1.25478209079014   -4.68625048044663
C          10.01709490534879   -0.91714832748812   -5.25899117384982
C          10.94246381574779   -0.29586564385311   -4.42215901984873
S          12.51736223472605    0.25686972895190   -4.91029924434245
C          10.32767413588141   -1.15622058220323   -6.65355567796605
C          11.53084691710944   -1.49719813308882   -7.20315264637523
C          11.49042511543143   -1.56433750442083   -8.61233948471528
C          10.27629658235745   -1.26807151595203   -9.16004917089696
S           9.13863485528405   -0.90626807764869   -7.90738749927306
C           9.88465368473165   -1.22261560385091  -10.59132515694654
Cl         12.87023182565277   -1.98491964149734   -9.55031415819137
C           7.70020043497420   -1.95178572833834   -5.28659533001514
C           6.63289511402050   -2.13873451055771   -4.45594509036334
S           6.90549203673448   -1.46408492336401   -2.86824011084897
C           5.40184931850028   -2.79263644789422   -4.76661524454494
C           5.15292725321486   -3.62937752786945   -5.81557532966780
C           3.82504621925327   -4.11882778368631   -5.84870379170894
C           3.25959111730423   -5.03716129885546   -6.75653409098658
C           4.02882521984634   -5.68068846969133   -7.80208999564938
C           3.62137189182563   -5.99664040319329   -9.06684071799748
C           4.61008800072924   -6.68053779371354   -9.80646975937250
C           5.77130731760937   -6.90604861636591   -9.12681891317140
S           5.65483176780265   -6.25093006977806   -7.52874132932587
C           7.00391878157633   -7.59325480027187   -9.58746658913203
Cl          4.35305318976698   -7.18353035872558  -11.43337152488178
C           1.90908582111305   -5.32403615348133   -6.58359518717550
C           1.11245913725524   -4.75204902931556   -5.56016826709424
C           1.68817475754800   -3.86796031997360   -4.62622381946260
C           3.03705831727202   -3.57407184332170   -4.80416650231312
S           3.98745688093880   -2.54437853626710   -3.77091576389967
C           0.94460704488352   -3.30876655987571   -3.51621073145371
C           1.05461976417813   -2.05716319835682   -2.98007459025309
C           0.21942828968685   -1.86671099025238   -1.85849825925301
C          -0.52371111966595   -2.95826017652614   -1.51433077109564
S          -0.20040647828582   -4.26038979744277   -2.60709159607840
C          -1.49420377918047   -3.11290182439820   -0.40196398849047
Cl          0.15873587993562   -0.37327570634659   -1.00429763044813
C          -0.23195006037930   -5.19095916427865   -5.63417363014274
C          -0.45722529811164   -6.10213061014235   -6.62271351054984
S           0.98890862839382   -6.44885306721348   -7.54513362458364
C          -1.68546365074809   -6.74563485196499   -6.95076727194676
C          -1.86885090136357   -7.80303299504092   -7.79289137232112
C          -3.21548733672007   -8.22442352378913   -7.89475753617148
C          -3.73433210636666   -9.28691555311347   -8.66287452801053
C          -2.89658963101583  -10.16125863531970   -9.45857614711645
C          -3.17411108720195  -10.70441692350995  -10.68045031845147
C          -2.15897645871917  -11.57339723126011  -11.13592953275334
C          -1.11041070948726  -11.71951881967073  -10.27503752243513
S          -1.36591393559390  -10.75048059333182   -8.86444479907362
C           0.11314076828447  -12.54630589438963  -10.42536099264146
Cl         -2.25468128300380  -12.37891805710196  -12.65420705560144
C          -5.10977627301268   -9.48344449874258   -8.59298735418308
C          -5.96735769256418   -8.69317914809371   -7.78282936868753
C          -5.45946233704764   -7.58429708187533   -7.06549050837030
C          -4.08230459689152   -7.40232782619329   -7.12852596648343
S          -3.18899033313339   -6.18371732218081   -6.25830881346356
C          -6.31569329424722   -6.62152436167544   -6.40631915790345
C          -6.14334295361472   -5.26381251813825   -6.39209574742855
C          -7.19374675852766   -4.57819289048051   -5.74902499474312
C          -8.17630206840823   -5.38359446384360   -5.24919073630157
S          -7.79292091762991   -7.03819668601653   -5.57478860701503
C          -9.44536055820913   -5.00945522729482   -4.58275567452902
Cl         -7.22828899556184   -2.86330656366360   -5.62188603118003
C          -7.30096455552445   -9.12837725209315   -7.86031136147738
C          -7.50709189123470  -10.18070046691875   -8.71682762323632
S          -5.99885913783563  -10.72121692675378   -9.43091740656051
C          -8.71285430875422  -10.85815286245924   -9.00807794402831
C          -9.99696909924322  -10.50523823852798   -8.71313869807997
C         -11.03331731688365  -11.58667134649682   -8.73004563466863
O         -10.92152606347356  -12.68246360847827   -9.22338652476852
C         -12.15867855537251  -11.02601853478582   -7.97090396314612
C         -13.36970080603498  -11.44920222922601   -7.51339577753660
S         -14.17728558227660  -10.16659304101152   -6.64045727240818
C         -12.87056918671415   -9.07153907785175   -6.91520256029034
C         -11.87569208456246   -9.66330038569305   -7.62735491786324
C         -10.59815788096773   -9.28729772193374   -8.20558272178370
C         -10.19863171746477   -7.98697419089714   -8.38891085179427
C         -10.86070833957480   -6.91439903370939   -7.76358278665790
N         -11.34392659942450   -6.03107861804893   -7.21065026016465
C          -9.12654843085817   -7.58797801283514   -9.20981145586741
N          -8.28377679430981   -7.21367107022067   -9.89304123135833
Cl        -14.08911137800644  -12.97038025997587   -7.70711564570264
H          19.08699043943804    3.83462379085887   -3.40406651433311
H          13.89041899619331    1.92618240041249   -1.84926776404763
H          11.73959281763355    1.05130736832590   -1.45561138785822
H           7.04481267078271    0.48714652668792   -1.08136286966972
H           8.78601305605189    0.25963361733660    3.47400201798534
H          10.46888017335731    0.58357610728570    3.01921612292401
H           9.89394567351057   -1.07792522758412    3.12690268658825
H          12.41420405670184   -1.72286966372382   -6.63622363919997
H           9.72804194751171   -0.19252203723091  -10.91290070773340
H           8.95723983443800   -1.76904442808722  -10.75469096883497
H          10.67187024137308   -1.66107367189711  -11.19969553632195
H           7.71088894311758   -2.30419268078464   -6.30004709191990
H           5.90351876926531   -3.89185021273263   -6.53626189560455
H           2.66855489787361   -5.72469721226533   -9.48062460919489
H           6.90123833910796   -7.86449036872441  -10.63516639684062
H           7.18002808941888   -8.49744837529689   -9.00499064528164
H           7.87209638739145   -6.94589648612445   -9.47050655062065
H           1.67503305451437   -1.27859740243954   -3.38269329073654
H          -1.19294375529749   -3.92343200821077    0.26094556977962
H          -2.48615364681493   -3.34664745341228   -0.78764951858866
H          -1.54547875432375   -2.18928995583309    0.16900440290664
H          -1.01591677411857   -4.84986191130996   -4.98338261300626
H          -1.05126187241986   -8.25959939761667   -8.31941493827129
H          -4.04665406214376  -10.47134323827858  -11.26148872399554
H           0.20417294199309  -13.25139775168149   -9.59979853778485
H           1.00317147614143  -11.91747934156581  -10.42840272675785
H           0.06807429768476  -13.09900384047293  -11.36028924887500
H          -5.32671414687447   -4.75499559002171   -6.86862586917975
H          -9.64004004198501   -5.65296921343814   -3.72693497153277
H         -10.27622654589255   -5.11859263499802   -5.28435093691463
H          -9.39911832831878   -3.97377909804552   -4.25562376385599
H          -8.08505347155960   -8.72573703510090   -7.25063252786254
H          -8.60858837373402  -11.83733857387221   -9.46557890171015
H         -12.92805002503440   -8.07546033917455   -6.52359823704528
