94
 SCF done       -193.742706890744          0.000504192302
C          -2.94858865261453   -5.30962711191887   -0.08031859412163
C          -4.30031047781180   -5.21961599757176   -0.19036001166312
S          -4.79363710926229   -5.20558379905213   -1.84641280370974
C          -3.13993469461029   -5.32407774457837   -2.40209145482025
Cl         -2.77097698643055   -5.36347169575105   -4.05704837411930
C          -2.28382569922772   -5.36918444838802   -1.34467533901933
C          -0.83555801830823   -5.46554012889323   -1.14034260021294
O          -0.00078128083738   -5.56429279540364   -2.02202488335737
C          -0.64467839635049   -5.45866301702241    0.32856836251946
C          -1.94701316307819   -5.35753648094237    0.96932960592454
C          -2.25321714314881   -5.28010690744674    2.30577718563278
C          -3.59162182666539   -5.17934207801802    2.73907581290233
N          -4.67286865413985   -5.10071601414260    3.11642065323208
C          -1.35539769412642   -5.27282636218366    3.39049655178836
N          -0.69743061267576   -5.24951027130320    4.33266983293381
C           0.51378232432889   -5.59701858452578    1.06552552852992
C           1.87893848687669   -5.63099296504290    0.72617146060525
C           2.43937128116638   -5.36780143138393   -0.51262841030924
C           3.79147324509553   -5.39023169310671   -0.79788914100298
C           4.79681512288750   -5.56693080463872    0.25937808498505
C           4.49203474095405   -5.84661673823756    1.54791467822334
S           2.89325901152411   -6.02123504081630    2.12969652565912
C           6.05135508411831   -5.36370621451916   -0.37228541644242
C           5.85697951627120   -5.08978882098404   -1.73226717857864
C           7.07887372952724   -4.88483004618447   -2.41380107042188
C           8.14031417705631   -5.00042716882519   -1.57658284985092
S           7.71056873401277   -5.36645566194113    0.06441124377350
C           4.45751600965910   -5.13767374874130   -2.02833453553706
C           3.91478763036508   -4.97914618908727   -3.32389918111178
C           2.68443318935614   -5.41395747818650   -3.71398742009640
C           2.09795936802557   -5.20067665505665   -4.98013468882904
C           2.56483591259978   -4.49285168440861   -6.08160380602190
C           1.65693438459871   -4.50474064125182   -7.13368199538272
C           0.48060562874403   -5.22687269650010   -6.83761421453988
S           0.50256052703519   -5.88164277120410   -5.26323340961441
C          -0.36657520676390   -5.18241266931034   -7.96729858077424
C           0.26383360090419   -4.43313519851859   -8.97942481878109
C           1.55611452905844   -3.98419422211649   -8.48772885526285
C           2.48160564954910   -3.23933765961034   -9.15968849468822
C           3.71276589003938   -2.87426055403764   -8.57737208264887
N           4.71436364592072   -2.58176679096354   -8.10146920563623
C           2.26097455784591   -2.79672849318989  -10.48037340972360
N           2.06989326480885   -2.44290222047829  -11.55429735160590
C          -0.49270943575981   -4.34384544071943  -10.14461357258670
C          -1.69746021334397   -5.02117473088651  -10.04011602295479
S          -1.89050646737202   -5.77459238414102   -8.45879046393719
C          -2.71375784862812   -5.17445511196631  -11.02712565927926
C          -2.68990896058613   -4.52138275528704  -12.24166461184401
C          -3.64755956125359   -4.67203383519046  -13.23895042768849
C          -4.78913646701769   -5.57145442176128  -13.06899920437999
C          -5.02655967978233   -6.29587148866417  -11.95260572152812
S          -4.00512504319831   -6.27586642241484  -10.57852361465697
C          -5.52379922016707   -5.48478399490644  -14.28188953360257
C          -4.90406733500980   -4.59156092070153  -15.15954998205229
C          -5.59904938817626   -4.51048739503141  -16.38696160953763
C          -6.69406407241957   -5.31517597425461  -16.40155368431055
S          -6.93688585859384   -6.20291767873296  -14.93902339587797
C          -3.72685651237782   -4.05554929663657  -14.51395588293834
C          -2.81384917324420   -3.10451161463769  -14.99546356374930
C          -2.88498735973053   -2.43363823075044  -16.18848695885334
C          -1.92388476579982   -1.48240701814679  -16.55202016687887
C          -1.83253047565631   -0.74252988628159  -17.70622882620616
C          -0.96941302522204    0.47179687197144  -17.68917628044277
O          -0.18321044767476    0.78643978937304  -16.82503580606018
C          -1.32695438204029    1.20167234227127  -18.91422582898040
C          -1.01202427868840    2.38430927158407  -19.50806010856815
S          -1.89519619415159    2.57439589409825  -21.00672875428676
C          -2.67260686372593    1.04311057929681  -20.81119517029469
C          -2.27774911698897    0.43426714042675  -19.66282795190177
C          -2.51735743384545   -0.82441938860896  -18.97278014141866
C          -3.14002429803413   -1.89812208916772  -19.56451904524888
C          -3.74888197369024   -1.78466786056576  -20.83038619205735
N          -4.27527345559670   -1.71664231977383  -21.84877746953989
C          -3.17850981365779   -3.21556996867841  -19.07628367988781
N          -3.22898438058033   -4.32110629634717  -18.76616264192921
Cl          0.06628653890294    3.57565062941782  -18.96739228696484
H          -5.04714449564717   -5.16193205598336    0.57592952611214
H           0.35094402356838   -5.71279739804433    2.13151399512965
H           1.74798060884175   -5.09839398551814   -1.29430027204938
H           5.24943971823094   -5.98888381540023    2.30301115588320
H           7.17007243785539   -4.66159883344989   -3.46105326007734
H           9.18034740099534   -4.89418175918980   -1.81569953375268
H           4.56512390942357   -4.51225585181059   -4.05215613097907
H           2.08137535446225   -5.99137903196622   -3.03178463875550
H           3.51840527812055   -3.99839600887790   -6.10089311117633
H          -0.17557535805798   -3.82519928476936  -11.02984033617282
H          -1.86318946997824   -3.85011380734991  -12.42042607310975
H          -5.88222021977687   -6.94390315824676  -11.84921733269037
H          -5.31121371174994   -3.92482855129484  -17.23858482754563
H          -7.39321688713655   -5.45104177678958  -17.20321377321720
H          -1.96769372000398   -2.88307981641317  -14.35639537014418
H          -3.71743202790193   -2.61253418661979  -16.84618314540241
H          -1.18510723698553   -1.21771346247225  -15.80099777945441
H          -3.36815227047010    0.71236648613977  -21.55643018109745
