162
 SCF done       -278.966384041408          0.000863622774
C           0.56804118879725   -1.06395184826354   -2.38871556762219
C          -0.51815587688614   -0.26658556061396   -2.73761859960154
C          -0.60742638514494    0.28503273907660   -4.12467859133866
C          -1.52153597523532    0.02061990819949   -1.79841146126726
C          -2.68133676774285    0.88714784645592   -2.17288161691947
C          -1.43574731290476   -0.50508673750295   -0.51334658283973
C          -0.36071354660021   -1.30208247660994   -0.17506576365759
C           0.65368439615009   -1.58210947865843   -1.10895091381180
C           1.67856087241111   -2.38939088096339   -0.45895580809338
C           2.99009691136940   -2.47925234888390   -0.84154716736184
C           3.48179457352834   -2.00371995526656   -2.07231733208853
N           3.92559525629218   -1.65722399931866   -3.07322822660052
C           4.00493221949435   -2.97543651348094    0.00508509413895
N           4.86719914922959   -3.30100025471058    0.68911538116925
C           1.13236147828961   -2.82312036086472    0.81120909438784
C          -0.06556382854160   -1.98242017566793    1.09922826404370
O          -0.68059238424417   -1.92890261596645    2.13969089291259
C           1.42475630944501   -3.87876945159214    1.61247753602864
C           2.19879441152503   -5.03333131982792    1.32718585781630
C           2.62754347200502   -5.95347646356687    2.24935448287328
C           3.32271662125152   -7.04787439795241    1.69246169101735
C           3.87606182019745   -8.16126950860076    2.36114018620429
C           3.70484273689872   -8.34091419853855    3.78672016712837
C           2.57880092140952   -8.13166750460467    4.53440891369964
C           2.75675863208605   -8.41739821937385    5.90182605529270
C           4.01507511475237   -8.83743013052946    6.20749176534376
S           5.01182204034226   -8.90356751708467    4.79159594103423
C           4.56712362596860   -9.21629950878321    7.53389263247206
C           4.55697185469838   -9.07836453101748    1.57023115418920
C           4.68681257175280   -8.95517167269810    0.16337839748884
C           4.11701944160485   -7.85391991111783   -0.50858490020430
C           3.44194365310466   -6.93488656635941    0.28434580097842
S           2.61365033146090   -5.52356969650805   -0.30629261441867
C           4.23015869265106   -7.65654417985107   -1.93998493032536
C           4.45094598871426   -6.48053796033613   -2.60060766715871
C           4.48472149962065   -6.62113349176691   -4.00206383199736
C           4.27985685885900   -7.89752642272313   -4.42441368178382
S           4.04809812080746   -8.96540345818734   -3.07766881965650
C           4.25021687773024   -8.42292225595448   -5.81446212485721
C           5.41862605046282  -10.02965847172275   -0.39125786100575
C           5.80827328193911  -10.96101955361686    0.52900156367815
S           5.31377981274712  -10.53715569871494    2.14879596593004
C           6.51924733910991  -12.17170272702993    0.27500297884470
C           6.76243474051789  -12.73809689023124   -0.94313831810160
C           7.47446441465015  -13.95858097882506   -0.87078562269693
C           7.87899974594334  -14.79068961512949   -1.93502648623089
C           7.66925603995102  -14.43636719522618   -3.32390688185186
C           7.33721268280908  -15.25711471190407   -4.36498688340853
C           7.25922217291967  -14.59000968563946   -5.60366372945332
C           7.54299305158260  -13.26216573596656   -5.52466675648783
S           7.90568687901825  -12.80376787305228   -3.89295480791125
C           7.56388770974901  -12.24950578020438   -6.61250882191197
C           8.50957941267923  -15.97883542079645   -1.57988695111223
C           8.79164681309556  -16.34191285935837   -0.23999465970287
C           8.43155335708051  -15.48568188188226    0.81960220001355
C           7.74946049934106  -14.32606561350759    0.46979858783340
S           7.15817294752864  -13.12943266715820    1.58891620011410
C           8.77408025237072  -15.80372754922006    2.19019405957118
C           9.94483496331693  -16.32058871494028    2.67031298957665
C           9.94328441661910  -16.50156159341088    4.06761102986927
C           8.77557637974337  -16.13214919701200    4.66029966188611
S           7.64485318342706  -15.53480432637684    3.49006017873422
C           8.40857901198805  -16.18570342435938    6.09936441665581
C           9.42105891131337  -17.60777372449449   -0.15699818957620
C           9.64700580667793  -18.18920331626918   -1.36916978580011
S           9.08047861317155  -17.19351287104975   -2.69402302537961
C          10.24937603795578  -19.45328845825818   -1.62898174651962
C          10.38080553341648  -20.08042922741099   -2.83366502190183
C          11.02605507077586  -21.33734392290215   -2.75637578335605
C          11.29335537131776  -22.24534797383090   -3.80163539503440
C          10.95747147672555  -21.96880525737311   -5.18377916317516
C          10.46313877534055  -22.83574306411427   -6.11728673182411
C          10.29207634010992  -22.25203482786590   -7.38817420145763
C          10.66673522858734  -20.94547875491862   -7.44119605696964
S          11.23307868790216  -20.40055483357797   -5.89616995315526
C          10.63685761271867  -20.01703351073343   -8.60134348727577
C          11.90664460574377  -23.44081632696685   -3.43883568530966
C          12.29447327164401  -23.73658690120301   -2.10821105884938
C          12.02840250866495  -22.82808670300198   -1.06207070480981
C          11.37692253713632  -21.65903878476704   -1.41933277801436
S          10.92015517870869  -20.39250200361766   -0.31372497149956
C          12.37719800312271  -23.16031784279791    0.30448124178981
C          13.54573548512112  -23.68461739553436    0.78115503133248
C          13.50881849473461  -23.96298566811980    2.16173616952695
C          12.31401435170297  -23.66470453735053    2.74155081842010
S          11.20687195925680  -23.00433928253812    1.58431476050604
C          11.89713733299320  -23.86637622095323    4.15314846798822
C          12.86942355423622  -25.01545524711691   -1.99388673068046
C          12.93278878902664  -25.70786317140281   -3.17525648701155
S          12.31506214172791  -24.75034620494892   -4.51003621598828
C          13.44775935939709  -27.00511302857803   -3.41707079250493
C          13.71963206675191  -27.99275139778091   -2.52228090287529
C          14.64322769478924  -29.09344112063540   -2.92524090473557
O          14.98602761304140  -29.37289541898274   -4.05117676740502
C          15.08036519752654  -29.70737902711241   -1.65894755568911
C          14.38258881599405  -29.12423783257713   -0.58631910875892
C          14.65773693854097  -29.53052313735539    0.70773728242154
C          15.61439682892693  -30.51618578137183    0.93274071334282
C          16.29736292804598  -31.10490677059491   -0.14336037618016
C          16.02450457607891  -30.69046174627704   -1.44304598080063
C          17.31558944910967  -32.17221463087472    0.10055839130340
C          15.90775765636611  -30.94645319811402    2.33456539587378
C          13.41584878248118  -28.16741231670706   -1.11557547719555
C          12.30244440838708  -27.72384703443364   -0.45022032117031
C          11.23199703995214  -27.04924015732221   -1.07307278286495
N          10.31201701915687  -26.54271230490023   -1.53604312690459
C          12.06833346480554  -27.92953586385261    0.92355211607677
N          11.84646992630884  -28.02603920260636    2.04622526016660
H           1.32722230427103   -1.28029824370374   -3.12422439359743
H           0.25211363779619   -0.01835324315879   -4.71587155510431
H          -0.64695486971734    1.37341188170702   -4.10158330008195
H          -1.51271216823711   -0.06649005563745   -4.61890600028412
H          -2.33863969331179    1.87510156479923   -2.47887373745765
H          -3.36308591916335    1.00083349905745   -1.33456879674167
H          -3.22805713482038    0.45492973427768   -3.01035707335784
H          -2.19779093405274   -0.29487174258780    0.22225510558078
H           0.91927414631561   -3.88687831635137    2.57360691294782
H           2.48603088994950   -5.81527156204061    3.30591953693425
H           1.63806164491749   -7.82954712810196    4.10969697438674
H           1.97493033146686   -8.31556036443496    6.63365241694475
H           3.80398741199727   -9.10550966451911    8.30026996961553
H           5.41800012604725   -8.58604562604667    7.79033516645005
H           4.91050197789041  -10.25027459806703    7.52501986629844
H           4.63046280631828   -5.54638509505806   -2.09930345369528
H           4.65740949532497   -5.79739568394345   -4.67151833699778
H           3.29619768545103   -8.90557166671636   -6.02548924869603
H           5.03705366542597   -9.16267744402236   -5.96229356522545
H           4.39732476549417   -7.60942330024463   -6.52065310589134
H           5.66252168893495  -10.10907655975831   -1.43340760025873
H           6.41145872763002  -12.30635217128741   -1.86098186054201
H           7.11654155808526  -16.30208781309344   -4.24507562934848
H           6.99954868185216  -15.08273958851665   -6.52388118619374
H           7.29078751198270  -12.71341618151160   -7.55728735518184
H           8.55610206444426  -11.80915186867202   -6.71063123297196
H           6.86232928354495  -11.44286028998295   -6.40051828622287
H          10.79834802527184  -16.52307615279384    2.04828099334890
H          10.78409883921060  -16.89205668234818    4.61338003007384
H           7.54159013216090  -16.82801500038933    6.25175982985136
H           8.15463354471199  -15.19205327690269    6.46736259595995
H           9.24058315542247  -16.57476319597884    6.68124245893656
H           9.67262127965094  -18.09202282379855    0.76910554743955
H          10.00686880426303  -19.64717050341785   -3.74321336503938
H          10.19119639896759  -23.85120735981400   -5.89368975012402
H           9.90321582443800  -22.78783225321932   -8.23581809479749
H          10.21614074507090  -20.52054395597250   -9.46845949763481
H          11.64239183962491  -19.67562688541710   -8.84741502448648
H          10.03372066567628  -19.13777089358491   -8.37615534051522
H          14.42059679687870  -23.82413818757476    0.17002553366218
H          14.34106444264933  -24.37458588355064    2.70504044737928
H          12.76811642417830  -24.05496984608764    4.77638717359364
H          11.22582453194149  -24.72255475466121    4.22920078489359
H          11.36962841584166  -22.99177455774570    4.52951079830981
H          13.24832133370530  -25.39962207558505   -1.06530881862062
H          13.72945216031533  -27.22390252167076   -4.44234473295262
H          14.14800422428083  -29.08635074662564    1.54844196000377
H          16.53976058804909  -31.13004889811616   -2.28396499647479
H          16.86354264104452  -33.02436173766019    0.60710763738279
H          18.11717171234015  -31.79900142056994    0.73724634719956
H          17.74668452400256  -32.51402605892658   -0.83631045938274
H          15.28998660281230  -30.40103415806037    3.04261354927719
H          16.95544838868969  -30.77166230446451    2.57769734560022
H          15.71586610372412  -32.01199108901701    2.45501327832641
