112
 SCF done       -202.464579729607          0.000520731348
C           6.97085459477343   -2.27998197439842    1.61249035469883
C           7.91059292936028   -1.29704306103022    1.31364524144296
C           8.63658159523741   -0.61408901593159    2.42811309854577
C           8.17631216418531   -0.94816529063595   -0.02002675232078
C           9.17998663573865    0.11370640613085   -0.33734375552084
C           7.50314550328587   -1.59625751131696   -1.05113925223279
C           6.57882800453400   -2.57551025569756   -0.74915224595559
C           6.30106115737140   -2.92080238843023    0.58609431332736
C           5.26033537283398   -3.94197761853610    0.60035260387386
C           4.41756286595593   -4.21224261900597    1.64889361038799
C           4.57696751050065   -3.67472555012358    2.94038831059004
N           4.67853724295189   -3.27750150061940    4.01284223497146
C           3.24621086118748   -4.98316317432321    1.50673733842101
N           2.26290771241696   -5.56729575264443    1.40003621082851
C           5.08674071071916   -4.39154054109491   -0.76260014051623
C           5.76515388715482   -3.40602249794724   -1.65480839142588
O           5.69085652229828   -3.35490187159356   -2.86116594028919
C           4.53297008566117   -5.51411237582183   -1.29675296259359
C           4.23187288954622   -6.75550492147837   -0.67154281291228
C           3.34130548274209   -7.63948274100072   -1.24314679392055
C           2.99205460296066   -8.87833371191785   -0.71827333628927
C           3.68499693569857   -9.40552636160936    0.46586890887444
C           4.61833640326713   -8.72800735503473    1.16964443114517
S           5.13570003370995   -7.14376877533006    0.78886963444513
C           3.17711842468339  -10.71831465678510    0.65745940033477
C           2.22910209061176  -10.99917356828930   -0.32704358754180
C           1.68421776834098  -12.29532024320730   -0.18731000517444
C           2.22478123879439  -12.94981960185656    0.87281640317402
S           3.40522222211892  -12.02736482762074    1.74430956459783
C           2.07717506760487   -9.85219496368213   -1.18189574804179
C           1.13258421102253   -9.83250178980817   -2.23215934132898
C           0.65709184742205   -8.76670441569445   -2.93067842999132
C          -0.31608539885219   -8.87452254677038   -3.94970030861652
C          -0.88155667847388   -7.83254668698268   -4.67272053971056
C          -1.82402236609699   -8.27782164282812   -5.59486349358120
C          -1.98409762893493   -9.67649497432351   -5.58232489793412
S          -0.96977860433094  -10.43712698807701   -4.43726720205751
C          -2.96135544937433  -10.02817650043531   -6.53888880404313
C          -3.42512058475360   -8.85551653216932   -7.16410462999276
C          -2.72427858407510   -7.71767118593026   -6.59221365132060
C          -2.87937672761357   -6.40295790441251   -6.92175347062321
C          -2.13823164397426   -5.37908073026198   -6.29566431153555
N          -1.53603191070281   -4.54500255370710   -5.78924847738811
C          -3.79142920704862   -5.98235000910906   -7.91207484097535
N          -4.53358973814011   -5.63974802688354   -8.71626664005988
C          -4.40174599092974   -9.10242510314326   -8.12620937118660
C          -4.69292046009916  -10.45059496908260   -8.24489122955013
S          -3.73003097104293  -11.43032239735424   -7.13772544689702
C          -5.63297857805978  -11.06805229665912   -9.11688606636890
C          -5.84296607509179  -12.42874156938624   -9.14170901529265
C          -6.74210070367915  -13.08067179141779   -9.97834733523747
C          -7.57119830877097  -12.33493396503216  -10.92678037237203
C          -7.53674990684444  -10.99125299768837  -11.06970335134602
S          -6.51034085396924   -9.96082163652053  -10.16274367436917
C          -8.34739859182136  -13.31666717500315  -11.59985396069191
C          -8.03785741494574  -14.59127501423421  -11.11753395916871
C          -8.76756501963254  -15.59242421480285  -11.79655857071564
C          -9.59146662505587  -15.06417583140577  -12.73916369395830
S          -9.52277793437289  -13.34031802843319  -12.85059523581660
C          -7.03557160746142  -14.46127980958393  -10.08545146743714
C          -6.42681067933090  -15.46313685555309   -9.31059912970654
C          -6.72838852483173  -16.79762839293947   -9.30620055453761
C          -6.03331889860342  -17.69539339812319   -8.48164708679836
C          -6.17727552024383  -19.05212914082773   -8.35538833887703
C          -5.60279772839723  -19.71553972457493   -7.15591480152968
O          -4.82109650591601  -19.22937220062441   -6.36598034115741
C          -6.22126367878959  -21.05249364006684   -7.11489212748178
C          -7.03006058709224  -21.22566556935999   -8.25100851320023
C          -7.73951095317486  -22.40320697347480   -8.40575452539315
C          -7.63571931200290  -23.40485329358154   -7.44387254927027
C          -6.81560539600890  -23.23035808448828   -6.31939465047800
C          -6.10976576163309  -22.04185634741652   -6.16018339341190
C          -6.69708813289431  -24.31222053396125   -5.29340586809352
C          -8.40657810718125  -24.67421362319229   -7.62310058639603
C          -6.91234941009684  -20.04168580358794   -9.10300004528123
C          -7.26975952632364  -20.00044998633634  -10.42869919840819
C          -6.91484921197467  -18.98457195799705  -11.33657753112413
N          -6.63658484524379  -18.22156044411172  -12.14948140850559
C          -7.96179224972696  -21.03474275721163  -11.09007978449207
N          -8.54518677174232  -21.82558029562750  -11.68519853371744
H           6.78369680479982   -2.54007589931770    2.64271964954184
H           8.30210611961770   -0.98729773432624    3.39200742533693
H           8.46583627613943    0.46117763779352    2.39351848460221
H           9.71031364701737   -0.77914836196533    2.34312068559580
H           8.89463431180829    1.06041105733827    0.12013445160660
H           9.26168865908851    0.25783294429242   -1.41108842743934
H          10.16035801114662   -0.15743039972163    0.05331215406226
H           7.69344009154818   -1.33995453944235   -2.08264602149655
H           4.37268918672550   -5.47813354581363   -2.37037819296774
H           2.88040135411542   -7.31320624228018   -2.16402504761246
H           5.10467457098294   -9.14489448287673    2.03758129664433
H           0.93782277246896  -12.72556959169288   -0.83000402785736
H           2.00315906600458  -13.94200503182116    1.21430578556573
H           0.70425556296258  -10.80137466303186   -2.46625580520752
H           0.97397588491785   -7.76057527387671   -2.70205467698449
H          -0.60865451306310   -6.80460399255350   -4.51644196478861
H          -4.88666863897740   -8.34693637555578   -8.71784867601669
H          -5.25186657367187  -13.01940388434981   -8.45398275419695
H          -8.15880587839952  -10.46532948066190  -11.77645204788968
H          -8.68136141108447  -16.65042240546367  -11.63902942867351
H         -10.25169106179374  -15.59183374536797  -13.39923689706281
H          -5.62850184645393  -15.13786978773348   -8.65406920931501
H          -7.53408454056324  -17.16269109253416   -9.91913447943573
H          -5.32760238380661  -17.26237224489254   -7.77798928679470
H          -8.38240662637289  -22.55824884688941   -9.25765656266012
H          -5.47469755871516  -21.88619524218642   -5.30073153748044
H          -7.67346121165812  -24.55193927057530   -4.87345301419338
H          -6.03719371043880  -24.00611920575783   -4.48622445853601
H          -6.29948232870280  -25.22254013922112   -5.74134654075747
H          -8.98131597096761  -24.64911323168304   -8.54479619728289
H          -9.09084628750538  -24.82862747824391   -6.78922331890735
H          -7.73194098592189  -25.52900281814384   -7.65766053644304
