108
 SCF done       -220.352965597528          0.000687137387
O          -3.57773752414813    0.83875978113858    0.24894848754741
C          -4.36651073715934    1.80484725929563   -0.29340790371444
N          -5.41291771017115    1.32885065091885   -0.89769366825049
C          -5.32948679563343   -0.03016817978160   -0.75861957608418
C          -4.18772465248638   -0.31355109141685   -0.04703185305493
C          -6.33153916009994   -0.93467567128762   -1.30688527764352
O          -6.29819665288672   -2.13418576557648   -1.21196660812757
C          -4.00846669138051    3.18197740581025   -0.16583996755064
C          -2.91703287787604    3.69800700180061    0.46727854418611
C          -2.85881497822136    5.11205290880121    0.40566437209201
C          -1.85281701782919    5.95818222000694    0.91577865442956
C          -0.76374128530630    5.43147478462082    1.71299228319522
C          -0.82758709176922    4.49010819297381    2.70074991431699
C           0.43372730521399    4.21412149471968    3.27021108230554
C           1.46504897539439    4.92746344785784    2.73057218427691
S           0.87521226065980    5.97756708162010    1.48878371729307
C           2.90867551458718    4.87275662110096    3.07194443860520
Cl          0.64110950704962    3.07222458114494    4.54315994458677
C          -1.97272510513357    7.30939157567573    0.61830681472695
C          -3.05113788943397    7.85274627651983   -0.12588217899330
C          -4.07524129736779    7.01182630421173   -0.60526106266660
C          -3.94798775764688    5.65284925560159   -0.32177421068009
S          -5.03257882435316    4.39957200014310   -0.86842329200608
C          -5.20293658049781    7.50536778843120   -1.36857313531401
C          -6.49885291067940    7.07687822775575   -1.31071496278541
C          -7.33689943944153    7.74058199684403   -2.23187541129015
C          -6.70223830772280    8.66350979307344   -3.01151703926917
S          -5.02474258498679    8.73356611061770   -2.59380872237893
C          -7.27171051507930    9.54115936270700   -4.06457995063160
Cl         -9.01970109563952    7.40122002910386   -2.35366056707684
C          -2.94615556312862    9.25930039236433   -0.24385612716992
C          -1.84345831192202    9.78136204444240    0.36879855581730
S          -0.86783165746982    8.55025156267494    1.14111529341817
C          -1.44256774543499   11.14493293622803    0.41979549520147
C          -0.38775954245717   11.68723925507497    1.12380186627776
C          -0.28711534415630   13.06765715481171    0.93270840443431
C          -1.27101117616289   13.57102114489359    0.06770264730210
S          -2.32501691275861   12.35452603539530   -0.49979299814584
C          -1.08152507465357   14.97224233165336   -0.06927245441380
C           0.01575636827116   15.35246576360797    0.71897782019542
C           0.55094401314286   14.16992098741321    1.37649085577634
C           1.61220139205040   14.11247430613760    2.23137692244144
C           2.05141224549949   12.90105630384456    2.80599306477730
N           2.41273606146536   11.92051059077192    3.27775777439800
C           2.33896871847725   15.26442801105527    2.59850401963130
N           2.93052837405743   16.19866625567511    2.90269274339610
C           0.28877489995272   16.71925179396178    0.64787988543185
C          -0.58793988308565   17.37707547907821   -0.19357727007552
S          -1.77058393020459   16.29231741053722   -0.90196548569871
C          -0.59992336091572   18.76538680399020   -0.50863207106852
C           0.20814887539482   19.73811396411980    0.00931587591054
C          -0.05020631508863   21.02865884053308   -0.51042389432349
C           0.62128776949706   22.23192131637859   -0.21493916866088
C           1.65417867564952   22.31968240312750    0.79634148665852
C           2.79537293244162   23.06994871252218    0.77118339713384
C           3.54794456779500   22.96120478029927    1.96035790151050
C           2.99598941585004   22.14868698189703    2.90800289476457
S           1.50999718353926   21.48488800794452    2.32166054413733
C           3.50688532271534   21.80697251716180    4.25867939407936
Cl          5.03761372540526   23.79508899568503    2.18104512017556
C           0.22314287126061   23.35527661634514   -0.93576899521303
C          -0.80676957807760   23.33503533944093   -1.91014534528556
C          -1.48511883829109   22.13238623675133   -2.19744052235703
C          -1.08721021664657   21.01200039778737   -1.47659277367053
S          -1.73328025308854   19.40733915441242   -1.67792845133149
C          -2.52800971964623   22.03964252364307   -3.19852248836723
C          -3.67381517031047   21.29754044881870   -3.14620339052252
C          -4.43674872743414   21.38829076656039   -4.32976793584142
C          -3.88810812347842   22.17928506257848   -5.29727967793232
S          -2.39143343316703   22.84435758625366   -4.73881828607120
C          -4.40529778838959   22.48263691667521   -6.65519295253877
Cl         -5.93501122599150   20.56238717670862   -4.52184659097236
C          -1.05299533535603   24.62440252233406   -2.44187592981611
C          -0.24539995809918   25.58462528992613   -1.90963115146399
S           0.86819204385552   24.95996921882845   -0.72432584757370
C          -0.24578089255303   26.97421171033571   -2.23839668438797
N          -1.01460717824736   27.56328048210491   -3.10629780344372
C          -0.65055141845033   28.88281436577011   -3.07561114378255
C           0.35933843496193   29.02450572958620   -2.15286260056020
O           0.61579775361202   27.82505778788732   -1.62489061913890
C          -1.28462373075812   29.88813331244612   -3.91775074986717
O          -1.00030060136561   31.05774960230755   -3.92405870019432
H          -3.74830884676228   -1.23354418030579    0.27940865332265
H          -7.14458934667611   -0.40312328696930   -1.83097561971559
H          -2.16927475172391    3.08369616893848    0.93338026971529
H          -1.74023386117497    4.04071822347461    3.04610999731745
H           3.03528273054147    4.47755311361818    4.07736656341535
H           3.35220787306482    5.86424223641233    3.01535259917874
H           3.44229032627631    4.22230948326721    2.37749966753874
H          -6.86080828773960    6.34210633704364   -0.61653582398346
H          -8.25058259203980    9.17116773154244   -4.35935776430202
H          -6.62017510822848    9.56911872572002   -4.93566388579045
H          -7.38347390343659   10.56099143224170   -3.69476151166045
H          -3.66463793410630    9.87546121657632   -0.75228443964141
H           0.26301745372464   11.09398745251650    1.74073696411838
H           1.08358238308541   17.21483539595367    1.17295505819584
H           0.97480177042473   19.53221146228450    0.73107411542268
H           3.11829017649068   23.65122342397901   -0.07205969461406
H           4.44267832140556   22.32972623026500    4.43916654285650
H           3.67783148665429   20.73415633302277    4.34310787192911
H           2.78727412166505   22.09245086963902    5.02534486599291
H          -3.99239839915022   20.73495258589537   -2.28855254847883
H          -3.81819433354344   21.96405001958327   -7.41379469703849
H          -4.34750309774538   23.55041554361590   -6.85824453137836
H          -5.43985853306468   22.15772260722393   -6.73460347440318
H          -1.79878364691256   24.85826229762043   -3.17710750674172
H           0.92297686637402   29.87181596559300   -1.82093017594534
H          -2.07254358546817   29.46638983602878   -4.56567039838386
