82
 SCF done       -153.960294828442          0.000975290571
O          -1.07184373376499    1.14929633093039   -6.53083253991075
C          -0.93682243531095    1.89164676029058   -7.66086844641120
N          -1.66565659905457    1.45042249599787   -8.64411243931044
C          -2.31927888948448    0.35184956803916   -8.15414534533575
C          -1.93928133540286    0.18239589207253   -6.84371885164370
C          -3.23836867359517   -0.43488295375472   -8.96258737883850
O          -3.84149128549824   -1.40325819576871   -8.57576347389070
C          -0.09431419629828    3.05120847216581   -7.71175235893296
C          -0.14228269864469    3.96913017346092   -8.72504974875318
C           0.76171644390438    5.03899354147137   -8.39482326095213
C           0.85387380582515    6.21075135154220   -9.00149104935226
N           1.06930130119076    7.23745192836617   -9.57572961110834
C           1.39259973162264    4.68129367601848   -7.14733723370424
C           0.86894062029170    3.49296036720190   -6.71410626166241
C           1.20300972731806    2.84422112686239   -5.46926096065207
C           1.45867714439668    3.59318306207568   -4.22285005355578
C           1.85863991150574    2.63961164997682   -3.23903117603525
C           1.82704178299502    1.39819627503216   -3.82276314160471
C           1.43430507555701    1.53139549086234   -5.21217279180437
C           2.12828609842613    0.17918033148470   -3.20555136193581
N           2.37491425929108   -0.82500591238112   -2.70538610880242
C           1.32171396646722    4.95325879933742   -4.12951758924403
C           1.76128673480194    5.78080458358372   -3.08876961807383
C           1.99149480774079    7.13629858738702   -3.23784144586645
C           1.89230930468591    7.82433793931841   -4.47147662175607
C           2.34809349471823    9.08405513758793   -4.70331873538266
C           2.96364774010646    9.89952951280777   -3.66313416203963
C           3.07768845362864    9.51472076537807   -2.37461224982688
S           2.56646257113464    7.97769370498579   -1.79522233481577
C           3.38720112981740   11.09294673064030   -4.32008934873006
C           3.08399425659302   11.04513138825831   -5.68472849360158
C           3.51417734520967   12.22196982219294   -6.34470660859619
C           4.10671169911609   13.09479859178733   -5.49002072277282
S           4.17370731895072   12.53762351781571   -3.85385902416632
C           2.40095428604527    9.80564181817601   -5.96882399779595
C           1.84968398685601    9.35099388149340   -7.14660353554927
C           1.95101671525402   10.01413950876926   -8.37567077193978
C           1.30498100845609    9.69228037109881   -9.54122051141919
C           0.40583400061091    8.49043578680105   -9.75923454280205
C           0.04944763141427    8.61823485179104  -11.22954581155806
C          -0.81073428788642    7.70522574827416  -11.84857475869372
N          -1.51592557272630    6.93601583868580  -12.32597515776663
C           0.67201963179165    9.68161468317262  -11.77975330978185
C           1.41175394457633   10.40676578333462  -10.77489809608289
C           1.99449964962254   11.65259080650600  -10.98569742357583
C           2.49229231523830   12.19351645046652  -12.25629640702617
C           2.80266122072649   13.51442946212149  -12.04771593425666
C           2.52231789511943   13.84119460399622  -10.68063094143973
C           2.06550482283461   12.70707670329190  -10.03682000567355
C           2.69535815030718   15.09617135681343  -10.08770705627539
N           2.85109975123569   16.11285400385077   -9.57576769238126
C           2.80893913286654   11.47566496535763  -13.44905146008647
C           3.05714270258963   10.15307142294669  -13.54339643366801
C           3.37563606047290    9.52931394332487  -14.78823836824729
N           3.45642619740955   10.08632150883206  -15.96265219838440
C           3.78455124112381    9.07753627523162  -16.82616148461427
C           3.88669017570290    7.91205541060108  -16.10167121024881
O           3.63110013322831    8.19058469556875  -14.82073570716560
C           3.97632074364211    9.29831494707030  -18.25260063699439
O           4.27080229865899    8.44278077703825  -19.04715151066446
H          -2.20247290998343   -0.54063052295110   -6.09952105782669
H          -3.33624355456187   -0.05069317857390   -9.99329974072574
H          -0.77561821937388    3.93598407585903   -9.58866606417720
H           2.20436032650663    5.23607393809040   -6.71512877506543
H           2.09455811172081    2.85321377423685   -2.21394379663649
H           1.38790922726074    0.70912585208526   -5.90042528361734
H           0.88953631365634    5.43264695775155   -4.99621942891807
H           2.01977807973211    5.33152960011321   -2.14039000895708
H           1.47568600507441    7.26948736296818   -5.29817151130977
H           3.51505975450393   10.14117274994164   -1.61425063368328
H           3.41140341963574   12.44292743960576   -7.39039096743615
H           4.51630355486605   14.05755064766002   -5.72423499751940
H           1.27969242877885    8.43221263336184   -7.11127365377910
H           2.60989312610149   10.86534772489348   -8.41582805640430
H          -0.49668816845616    8.55503083421699   -9.13142277289070
H           0.56301286621079   10.00858791162342  -12.79760017496555
H           3.22297914430804   14.19404844280679  -12.76461854005078
H           1.66289618225442   12.68391361638434   -9.04138337819464
H           2.92068604849716   12.06798809195996  -14.34780527921067
H           3.05258343470292    9.49701054305235  -12.68543288162774
H           4.11723255972058    6.90495362935946  -16.38181795720826
H           3.82117355549451   10.35132175766495  -18.54734952685532
