96
 SCF done       -197.357040415660          0.000882496798
C          -6.62839594439559   -2.25270633837935    4.83117080894108
C          -7.33614771564899   -3.34014568946677    5.52937292259774
O          -7.45162123034434   -4.49870804928453    5.17812427483728
C          -7.92634918942192   -2.71792306190766    6.73062901323169
C          -7.46604425039224   -1.39318631163816    6.84311197089225
C          -6.55234090947207   -1.12467904511096    5.74075277410533
C          -5.69147959693993   -0.06450457114835    5.64312394644743
C          -5.57300687220340    0.93371825489245    6.62998860322583
N          -5.42302479504614    1.75600450044609    7.41759011734763
C          -4.76139786963287    0.10417324537198    4.59544148834172
N          -3.97913545386745    0.28928983940444    3.77592836294396
C          -7.93194437206836   -0.58799844854255    7.87077883403810
C          -8.84576478051904   -1.11638103603114    8.76865699500665
C          -9.27474259595239   -2.43369444402226    8.65427240652748
C          -8.82028231396358   -3.25796278552742    7.63071130856155
Cl        -10.39542593274029   -3.05454948174036    9.79953131740218
C          -6.30331021602486   -2.23107342937960    3.50282216893302
C          -6.34881555061776   -3.27847474992071    2.56427374417870
C          -6.24446693297627   -3.08433861493982    1.18315953691842
C          -6.24602273662028   -4.27717039929147    0.48100653986332
C          -6.29513316646780   -5.39919004585583    1.34708462484036
S          -6.45018941407041   -4.98453369362899    2.98811306124944
C          -6.21568303470403   -6.56389561188018    0.56217789751559
C          -6.14226117101760   -6.20320601935473   -0.80388504895345
C          -6.17569549526288   -4.74805390152012   -0.89205365276028
C          -6.14816306955585   -3.99321484866268   -2.02873251099549
C          -6.08348798557713   -4.57669481777074   -3.31072528687598
N          -6.02889345327195   -5.05244335414866   -4.35295017896994
C          -6.19290500148678   -2.58374358728229   -1.99673620744634
N          -6.23811080443808   -1.43799858579005   -1.97748974455879
C          -6.00820835516581   -7.29929596005270   -1.64030913700743
C          -5.92111203826813   -8.50183424393070   -0.92688458662850
S          -6.08468035487191   -8.23969274335520    0.80943163691603
C          -5.64636999655485   -9.76839207272332   -1.46339904490359
C          -5.22292511130126  -10.86515981155727   -0.74470397125381
C          -4.79804209694118  -12.12363216630118   -1.23832677787428
C          -4.22990305351721  -12.93887353731793   -0.29836061755330
C          -4.17893334037242  -12.36300647198553    0.98563275373601
S          -4.96212313002762  -10.80251620445379    0.98278005709396
C          -3.55056896103230  -12.74366302016429    2.16384822558623
C          -2.84382880079994  -13.89755057592058    2.54493719707199
C          -2.28014984092000  -13.80838883026924    3.78939787744399
C          -2.49669019127041  -12.57399722376604    4.44775323070775
S          -3.50310262096691  -11.55793710096920    3.44663928810297
C          -1.95641035131516  -12.17249742033458    5.65376485477830
C          -2.06560182850500  -10.90732901272717    6.24224209274119
C          -2.76900782293042   -9.77327208329496    5.81673015287387
C          -2.55491768353545   -8.67953057530195    6.63069070775507
C          -1.69095845269625   -8.94429855047390    7.72002079660514
S          -1.15243346234886  -10.57097330165369    7.71838120862043
C          -1.53515010266676   -7.76187536956683    8.46345968252260
C          -2.29961801137541   -6.73890692833752    7.84333951506777
C          -2.97289467707445   -7.28362522866430    6.68796753249997
C          -3.83063490116476   -6.63175353155347    5.84506430085944
C          -4.19634340257561   -5.28510140743941    6.05037179616705
N          -4.49469903806468   -4.18972939563257    6.22008825132803
C          -4.39183543614876   -7.24765441695807    4.70848851894550
N          -4.82646148633615   -7.72717839665618    3.76095025574813
C          -2.20558770280604   -5.52183831269790    8.49675412393647
C          -1.39469762083653   -5.58137997197932    9.62294756804743
S          -0.70681941528001   -7.19378084329010    9.84093618235396
C          -1.05242076390149   -4.54250867148666   10.50899157469705
C          -1.67567447228926   -3.33529798764821   10.65361931591802
C          -0.93790230690638   -2.19191233172055   11.25434701100241
O           0.10018405664139   -2.24173603870158   11.87128511990536
C          -1.72071500630278   -0.99246700800962   10.87689637634942
C          -2.90392025038342   -1.39156313710134   10.22688752587304
C          -2.96715590423008   -2.84977888688184   10.22270886802499
C          -4.11776885211795   -3.58514388547153   10.08851368813290
C          -5.36912220271419   -3.02931239576130    9.76724023506481
N          -6.41343775506748   -2.63659369430819    9.49690065855716
C          -4.20543708604822   -4.96956826061066   10.33308732991299
N          -4.33784301407140   -6.08954728357197   10.54935486958707
C          -3.77445246206399   -0.43402918315718    9.73027478246944
C          -3.46039105526962    0.90615825151197    9.89621241113336
C          -2.29915236081765    1.28425092599981   10.56216842947281
C          -1.40877480597424    0.33815415702679   11.06185648716684
Cl         -1.95194279985173    2.95677976241041   10.76514971072252
H          -7.60848546942780    0.43527888131979    7.97621912675507
H          -9.22248705900503   -0.50563900681841    9.57390488462135
H          -9.15075593072390   -4.28046918671842    7.53842745437939
H          -6.01165837640847   -1.27648397537640    3.07823394917928
H          -6.17500507938835   -2.10445180134013    0.74485830509351
H          -5.93068186595791   -7.25773665407409   -2.71189841703792
H          -5.69103910478832   -9.86159209241364   -2.54043758398366
H          -4.89375293209503  -12.37791965139470   -2.27930778779708
H          -3.81696359044993  -13.90960017092804   -0.50781119294877
H          -2.75918844421798  -14.75524356816764    1.90167527780172
H          -1.69293076216760  -14.58788064422569    4.24215234577226
H          -1.34323573048319  -12.89665049182141    6.17395037732548
H          -3.40561080880094   -9.75220698911079    4.95411490423311
H          -2.66012718870966   -4.61165761111044    8.15033596094879
H          -0.14718697540569   -4.67301857961920   11.09249897480588
H          -4.67583793027490   -0.70799230674099    9.20553701608271
H          -4.11880205088011    1.65965842306496    9.49231493292426
H          -0.50436251725726    0.62780088396656   11.57302331620308
