135
 SCF done       -253.462327560197          0.000827870974
C           3.41265953869693   -3.83492510116433   -0.27646050099103
C           2.96382477363015   -3.38985749436099    1.07895366460037
O           1.90599769294267   -3.60872642955707    1.61606833785813
C           4.05005362957427   -2.51624083876926    1.57224139744639
C           5.09993481876459   -2.47786407485670    0.63724240743692
C           4.76819193533994   -3.34625014622788   -0.48038025681628
C           5.62104620332155   -3.77343064267125   -1.46097624378107
C           6.97492442779307   -3.38830416533197   -1.55203772560244
N           8.08409643232961   -3.11876011901717   -1.67038001387922
C           5.27485232876928   -4.71623950943766   -2.45008949187445
N           5.05690027862730   -5.49182627526635   -3.26910063320068
C           6.22787537700017   -1.71344202340494    0.90127007493572
C           6.29289541983260   -1.00954648825871    2.09266179084699
C           5.24999134986068   -1.06844250328369    3.01192342079217
C           4.10876973216392   -1.82182901337573    2.76216238358539
Cl          5.37952798565663   -0.18899613872591    4.48598144389724
C           2.62817017203441   -4.46751358510824   -1.17234106631773
C           1.35323609609009   -5.08229748240807   -0.84215113297887
C           1.26680816651180   -6.00750164782519    0.20954628227350
C           2.49704085125207   -6.50951723119269    0.88380974476270
O           2.63552225193352   -6.60240189754328    2.07907395041741
C           3.50684238788173   -7.02215562333327   -0.07543296878941
C           3.15263127175271   -7.73061156891631   -1.18672160287262
S           4.50727963405054   -8.36719448836466   -2.01837145068767
C           5.57695842790638   -7.69694387829173   -0.86379159028253
C           4.92416586370318   -7.01287496611469    0.12330122561373
C           5.59759508885896   -6.23002299146775    1.17742680219665
O           5.16632699973634   -5.14642135355343    1.52765862487284
C           6.85153319897968   -6.78721176499280    1.72659480568202
C           7.08673403263595   -8.15885263786169    1.79799622277646
C           8.27128271469183   -8.62752173087585    2.33495361528980
C           9.22939093267436   -7.73804339847572    2.79551820259780
C           8.99650485757021   -6.37276197720620    2.73673497953336
C           7.80926401638182   -5.89879233060495    2.21456596067921
C           0.03657220049133   -6.55777077184155    0.53669555576834
C          -1.09081502540710   -6.23622514183687   -0.19233971223526
C          -1.00601297781169   -5.36842947246632   -1.28366844902468
C           0.21758480186203   -4.78333223259731   -1.58554095676652
C          -2.18771250197773   -5.18678809571947   -2.13668358690011
C          -2.10339318719291   -5.16948910252633   -3.53257332282001
C          -0.83856763279756   -5.07465313035389   -4.31878806020441
O          -0.67031225921672   -4.11128720896046   -5.04344049385318
C           0.16170987509351   -6.15599179219157   -4.28190113136627
C           1.36856814497444   -5.95222744524270   -4.90810763892004
S           2.41331363736324   -7.28981463861673   -4.82340236620059
C           1.24520723269907   -8.16333065611276   -3.91569912277259
C           0.09575208421817   -7.46246614295729   -3.70080331387697
C          -0.99146706225465   -8.07503778775455   -2.88669733482984
O          -0.72838720562039   -8.53042569071942   -1.79145016485742
C          -2.33385896439549   -8.15159791404560   -3.48924307745578
C          -2.51244306101156   -8.11978482235705   -4.87218618938402
C          -3.78085260147533   -8.24222387796107   -5.40592517803268
C          -4.87847073813506   -8.37646487563691   -4.56922172591556
C          -4.70640015471029   -8.41131226452001   -3.19479209502310
C          -3.43960192187534   -8.31588138270497   -2.65414178552978
C          -3.27662817017373   -5.13270838618902   -4.28149559096469
C          -4.51131136227805   -5.19909237063130   -3.67632207068417
C          -4.61954989432139   -5.16975089086908   -2.28366075940910
C          -3.44559992448059   -5.10988718355261   -1.54379867624637
C          -5.94633458776834   -5.27889932846220   -1.65782545025475
C          -6.14113388930244   -5.87028159534111   -0.40133206874822
C          -5.03751344692980   -6.25661938938542    0.53911951305365
O          -4.34158902600406   -7.23732992796561    0.42537387940890
C          -4.93760596906812   -5.30048964714416    1.66137996634887
C          -5.46354694431378   -4.03353340835455    1.63244405639435
S          -5.13892889474981   -3.15099901659018    3.05615656025672
C          -4.27392852378593   -4.48371764075555    3.72016973134658
C          -4.23594211226149   -5.55177221725285    2.88150860385512
C          -3.62891672741163   -6.86458888515081    3.26279469867217
O          -4.31892636419883   -7.85387640137012    3.36414630443192
C          -2.18766858631757   -6.82697351663782    3.57634764911071
C          -1.38225763845742   -5.72560080590189    3.28054057671606
C          -0.04390583217616   -5.73079546296817    3.62555963286198
C           0.50443399930500   -6.83083456633062    4.26765105134736
C          -0.28395682394139   -7.93680815528096    4.54940071947224
C          -1.62028926970230   -7.93875599779786    4.20243462603193
C          -7.43006183937623   -6.06645099074579    0.08751696336098
C          -8.53449137510996   -5.69979411894929   -0.64879299843294
C          -8.36228529055854   -5.04439922648448   -1.87074360287330
C          -7.07156960970191   -4.81963733855690   -2.33917733553362
C          -9.50095243822584   -4.56260626942598   -2.62577591817267
C         -10.69584014448471   -5.16798999693915   -2.78010635771779
C         -11.88390590664860   -4.39185260129713   -3.24567326130508
O         -11.87860801314049   -3.30506215481827   -3.76869906495675
C         -13.04880263212559   -5.22081537501777   -2.86551114122526
C         -12.60532970557396   -6.45650148533431   -2.35530205166935
C         -11.15119708063908   -6.50924615921261   -2.44063029274323
C         -10.38833113006121   -7.64307348233413   -2.44690204383018
C         -10.90203264509318   -8.93269286865551   -2.19086424570313
N         -11.27716953617150   -9.99459726521951   -1.97342724988476
C          -9.02688495282072   -7.66658264469038   -2.81768141083613
N          -7.94417781367106   -7.75140504201863   -3.18734436054646
C         -13.53268327663567   -7.38766621567772   -1.90862958406267
C         -14.88020448095000   -7.07599791956431   -1.98486315807358
C         -15.30372183186683   -5.85567797372758   -2.50463856227165
C         -14.39017923696121   -4.90740289230528   -2.95134956883441
Cl        -16.98867168447231   -5.51667467935613   -2.59232094855350
H           7.04597947947945   -1.65513620642305    0.20105985840258
H           7.16223849052954   -0.41111634212957    2.31681508719165
H           3.29926820917813   -1.87612020730734    3.47273824722437
H           2.92311399094549   -4.51661671865368   -2.21389570541939
H           2.15680172189025   -7.93928664351534   -1.52717771398090
H           6.63620198457403   -7.80418719732989   -0.99342014734849
H           6.33204120624412   -8.85341451306397    1.46071122299946
H           8.44838465722176   -9.69094903194617    2.39695813779273
H          10.15540656521405   -8.11008373584176    3.20799124405946
H           9.73979808152089   -5.68025170688150    3.10205295134848
H           7.60541236256969   -4.83892219792032    2.16416355525620
H          -0.02103061661712   -7.28133483703641    1.33379390814568
H          -2.02793738950776   -6.71394012883967    0.04885336081507
H           0.28766793480595   -4.05685115471832   -2.38239257686312
H           1.66626950233209   -5.05502158495040   -5.41531229938860
H           1.44775477098419   -9.17152250474239   -3.60990348523805
H          -1.65632459044651   -8.01882990633807   -5.52432862547232
H          -3.91483463312247   -8.23036278460006   -6.47779862601688
H          -5.87240215819791   -8.45562140016843   -4.98244645423805
H          -5.56536102091550   -8.51295463007007   -2.55010552466162
H          -3.29026735451203   -8.35089281458044   -1.58571614724015
H          -3.20359075951310   -5.09911081637536   -5.35819845525635
H          -5.39218404832841   -5.28757248655693   -4.29104898396256
H          -3.48523125660056   -4.98981798284362   -0.47325594328874
H          -6.00697456466801   -3.56752870417285    0.83377648490073
H          -3.85266653573140   -4.40649154389779    4.70285222534092
H          -1.79336102350276   -4.87243567709387    2.76151400443215
H           0.58233033248253   -4.89104444414803    3.36786632217007
H           1.55272956784062   -6.83097372576135    4.52102016552500
H           0.14687675956346   -8.79908760432413    5.03682512297185
H          -2.25315197393619   -8.78871400235536    4.41109861646650
H          -7.55701127634107   -6.52941208853685    1.05530744274954
H          -9.52752861278186   -5.86295793273177   -0.25662425155069
H          -6.95018101241032   -4.29213496604522   -3.27254438132220
H          -9.40829003682209   -3.57578789692114   -3.06824274407679
H         -13.22446560461387   -8.33549442163351   -1.49747243848254
H         -15.61503575652447   -7.78590894287287   -1.63913369472129
H         -14.70975634839709   -3.95919305133725   -3.35368701987067
