70
 SCF done       -135.723584698370          0.000833017844
C          -0.55390283686725    1.32971326214155   -0.00545857799469
C          -0.29699749322693    0.64437613152900    1.15622679398162
N           0.01415997581093   -0.65338176240055    1.23067000344575
C           0.09540408167198   -1.39360708186686    0.14439727923852
C          -0.20854825306060   -0.82647427698200   -1.12265511653695
C          -0.52813608768182    0.57599452063152   -1.18817852012105
N          -0.80229052175768    0.96803064347688   -2.43470276739468
S          -0.69152786812436   -0.30914294515676   -3.40422300877080
N          -0.29397011699339   -1.41308435601599   -2.31395184185036
C           0.47731317067557   -2.78436100229565    0.30547637239075
C           0.20330555786899   -3.47295597881628    1.47106946076954
C           0.52768558766726   -4.81852827356069    1.65914918534203
C           1.18024018101006   -5.59312785724651    0.70935605796413
C           1.52146949358051   -4.90402416875411   -0.49321042506852
C           1.16808981804010   -3.51501495164985   -0.69214872571596
N           1.65169900237503   -3.15379765271529   -1.86375525268554
O           2.24474233392754   -4.22546819432899   -2.37440383275338
N           2.17635555270297   -5.29009260026675   -1.57079643557806
C           1.50287718475688   -6.97766794947554    0.91146982844900
C           2.26351404276478   -7.69653932667231    0.02053120445392
C           2.62277342780711   -9.03392098444268    0.15802291174090
C           2.27879887841908   -9.78665516005871    1.37137219701497
C           1.52016663350159   -9.29299239715611    2.37317185732603
S           0.86203186724438   -7.70877025437599    2.38417340494476
C           2.91497205286777  -11.05046615948909    1.22797688986668
C           3.60689825272709  -11.09039704129705    0.01758695464875
C           4.26077220510217  -12.32640245728350   -0.18231547713171
C           4.05628168945367  -13.17273425576968    0.86001715986239
S           3.06418450029083  -12.51247734088386    2.11902861444408
C           3.41358132309495   -9.84738481539200   -0.68337396961547
C           3.94989440488277   -9.59188172241499   -1.96406464527755
C           3.53458529319852   -8.63357573018988   -2.84202274434465
C           4.13338437164924   -8.40349745789922   -4.09424988545909
C           5.28105339409112   -8.97604478735275   -4.67126339230859
C           5.55922863051311   -8.46905462824710   -5.97888555378495
N           6.62816137493487   -8.90432133167077   -6.67299534017641
C           7.39603613986843   -9.79743626944177   -6.10144390432532
C           7.11791963035376  -10.30278042231988   -4.79339539594497
N           6.08002786818655   -9.89621509381441   -4.10383562322273
C           8.00594294286659  -11.31742525738936   -4.15246143370675
C           8.58269755185848  -10.26599900920210   -6.87572396814362
C           4.63138022731375   -7.51103298303643   -6.40845786613266
S           3.43991039979410   -7.24371928307999   -5.18347482853452
C           4.57917367473079   -6.80711497802183   -7.64433227957814
C           5.48820162880448   -6.98693169760315   -8.68641809358756
N           5.45071165991702   -6.34609609640631   -9.85374980684124
C           4.51955970438247   -5.46292221126044  -10.10867365190054
C           3.52942985422589   -5.16255654701515   -9.15564670484309
C           3.55991583077160   -5.85340681320699   -7.89679660089712
N           2.56946627555249   -5.47985548839486   -7.09212122585770
S           1.69029737464672   -4.36180964942528   -7.84662796532619
N           2.51169547109933   -4.30047277004443   -9.22491286164099
H          -0.77788082385181    2.38285727495264   -0.02212302701940
H          -0.32208938352239    1.14902460666197    2.11298299532250
H          -0.29795405993041   -2.93834357810580    2.26275422366965
H           0.25508876724007   -5.27435093348145    2.59944282417702
H           2.63035366375794   -7.14724278570835   -0.83207887942451
H           1.26655391102219   -9.86804957305251    3.24981592146960
H           4.84815774859769  -12.57750476999210   -1.04663265455010
H           4.42900476593292  -14.17117468025160    0.98112995180571
H           4.74390708891695  -10.24981153185180   -2.29067191002585
H           2.67358352693571   -8.01899769916511   -2.62436764625378
H           9.02322769194254  -10.93676916670361   -4.07386731111400
H           8.03342754967504  -12.22997483834158   -4.74654680372394
H           7.63251497348587  -11.54659269024344   -3.15839735650032
H           8.60629840948727   -9.76094617178211   -7.83708534963002
H           8.53316922469635  -11.34217748222572   -7.03503391337886
H           9.50118482284318  -10.04781725726357   -6.33265999346764
H           6.29403975343549   -7.69561014686791   -8.56799787673286
H           4.54020503006493   -4.97667366263594  -11.07272164744104
