78
 SCF done       -160.635876572984          0.000926178290
C           4.16996290590970    1.12950482989734   -1.85054882798387
C           4.34647396561430   -0.02226699900799   -2.57816461835973
N           3.91713233078459   -1.23201752247315   -2.21211887696193
C           3.26709554724526   -1.40523381627622   -1.07695446029461
C           3.01571945823297   -0.29623413427176   -0.22237300334808
C           3.48516764444316    0.99974821340848   -0.63272966707661
N           3.17998457771853    1.94310881110217    0.26182644135009
S           2.38949894601665    1.26154285767102    1.48109992130972
N           2.38802997720029   -0.25573380983734    0.95008729808851
C           2.83703484703031   -2.73164428680222   -0.76295724587225
C           2.14047595127726   -3.18586991813271    0.33709673444247
C           1.90424089864138   -4.55953761023740    0.26212064886915
C           2.43351530563479   -5.13782427939130   -0.90993381509645
S           3.21588313623464   -4.00003598059709   -1.91153513078159
C           2.13584183490556   -6.52268714144199   -0.89525080265712
C           1.42082188230572   -6.82195786155144    0.27545391159739
C           1.25662808001570   -5.59403166865048    1.04472690402834
C           0.62592416118922   -5.45701732278739    2.24719773020516
C           0.03348127957139   -6.55146186761157    2.91064642792320
N          -0.44861541979991   -7.43986132893874    3.45269275351669
C           0.52305424231983   -4.21591269378854    2.91023367913634
N           0.43008141541982   -3.21459092283233    3.46117819420516
C           1.06977361788007   -8.16646096002922    0.37289519103727
C           1.51063301598606   -8.90189324736664   -0.71474583343162
S           2.38141530864381   -7.90086339018094   -1.87458378971717
C           1.32932323722433  -10.29270236235229   -0.95905780157228
C           1.81503809771190  -10.91371184434090   -2.08592371732407
C           1.65688074940556  -12.26292107222403   -2.39169133377880
C           0.82438928524768  -13.12490342906151   -1.53894030715917
C           0.27201986595224  -12.73229717306955   -0.37085833337305
S           0.43699522342567  -11.15723575250814    0.28798873444148
C           0.75855323636347  -14.37599807924148   -2.21111378000826
C           1.49861355929685  -14.31133051128062   -3.39148594424010
C           1.47164057670391  -15.52991192361080   -4.10487548639550
C           0.72385725509226  -16.46518202365947   -3.46318732227619
S           0.03378269424298  -15.91530340275283   -1.97253524181368
C           2.09627557221143  -13.00581145785339   -3.50696038410518
C           2.96882257311026  -12.66242926581115   -4.56605721653257
C           3.85221730908793  -11.62824069908175   -4.60042657936193
C           4.70861544996668  -11.34553552259313   -5.69081871377144
C           4.78774148470068  -11.95313834352755   -6.93726904040695
C           5.77846081782399  -11.39085419096999   -7.73477050738256
C           6.46811928674664  -10.34023956910803   -7.10407457572053
S           5.88604492511069  -10.04733958707913   -5.52454771794540
C           7.45011136960580   -9.84651847602825   -7.99623412603519
C           7.38188518905746  -10.58227306771946   -9.19418852435978
C           6.33150521803689  -11.57295571588564   -9.07261651715841
C           5.93557766449992  -12.48692335646208  -10.00586208800531
C           6.53066826497299  -12.57473909644850  -11.28180846089984
N           7.00221539559391  -12.65848474556461  -12.32373851061843
C           4.89780873516788  -13.40766492007223   -9.75469899541592
N           4.05686823598130  -14.15988718263530   -9.54803127645890
C           8.32382949440971  -10.16775493156012  -10.13889161044142
C           9.10363006717899   -9.12999860510496   -9.67552950679264
S           8.66694723958367   -8.65202729386911   -8.03635428950346
C          10.16173287676934   -8.45645117655363  -10.36695780561945
C          10.88087418500973   -7.40614046410107   -9.80955981739505
N          11.87189796109317   -6.73816685117412  -10.40038020167264
C          12.24921655888124   -7.04942863220440  -11.61120047994614
C          11.62225038598828   -8.09345226721784  -12.31593349900463
C          10.55247844982751   -8.81800650970512  -11.68342614265540
N          10.06545758951571   -9.77219680649613  -12.47553327462858
S          10.87062904865198   -9.75401991417651  -13.86567907829001
N          11.87484870386419   -8.54604807130159  -13.54598079133224
H           4.53169983374804    2.08710016717994   -2.18385155919549
H           4.86472208851005   -0.00383889106869   -3.52719671517316
H           1.83283879208713   -2.53260649142763    1.13332516582671
H           0.51961123263250   -8.60218809729586    1.18736934472712
H           2.32614304611659  -10.27830284310213   -2.79534607133058
H          -0.31461155773214  -13.39563290667484    0.24485781454489
H           1.97012445588602  -15.71078601849412   -5.03980091114336
H           0.52695268466146  -17.47314895385890   -3.77200844962895
H           2.95022029447054  -13.34408376005525   -5.40607815304382
H           3.97194727671971  -10.98712677068895   -3.73999656070109
H           4.14857442637496  -12.76170804995195   -7.23903081343068
H           8.45416030975540  -10.58608340822799  -11.12028695219455
H          10.64708795982228   -7.06880830093683   -8.80763943122999
H          13.05486041168552   -6.47942933136956  -12.04898620659690
