68
 SCF done       -137.044492041850          0.001185484263
C           3.43164160131798  -11.76836667154049   -5.49522217181121
C           2.94703315328217  -10.50000394355394   -5.71321301540098
N           2.36892667855050   -9.73787522602395   -4.78673719709132
C           2.21109062255241  -10.15637862370941   -3.54744403098127
C           2.66536404716585  -11.45704632791084   -3.18323521696130
C           3.29139555420699  -12.26964930111333   -4.19327051732768
N           3.67256187380864  -13.45658158056885   -3.71264574916007
S           3.28273578384743  -13.53136058171119   -2.16000336572643
N           2.61374696284182  -12.07808778889911   -2.00667637992504
C           1.58703771618974   -9.26025780294707   -2.61611868757314
C           1.23229538487691   -9.54486761964081   -1.22748091561580
N           0.67824779302707   -8.53996904048278   -0.60377485536794
C           0.62667396967915   -7.52862786925067   -1.51149991011208
C           1.18642941448314   -7.95520559718158   -2.80048965165188
C           1.13880479334983   -6.85462048795628   -3.74049859007118
S           1.66602669231478   -6.81481460919144   -5.30003651713218
C           0.54591457456452   -5.78440829333977   -3.00006347151386
C           0.24124690000304   -6.21040981466029   -1.64138062984626
N          -0.32173828074596   -5.18768862478945   -0.92982311068555
C          -0.37192511390723   -4.17162470011815   -1.74058401762373
C           0.16619853162791   -4.44258896511467   -3.08052108095025
C           0.28063374209300   -3.61629402256375   -4.20025761425208
C           0.02949942511697   -2.26558074644032   -4.32339472910237
C           0.16121396862654   -1.53717967493790   -5.52870535717374
C          -0.11876074419463   -0.20566160108997   -5.41595792436847
C          -0.47607561728299    0.18461506558516   -4.11096514848938
S          -0.45998993229659   -1.18756144392003   -3.03313807447790
C          -0.82663369917470    1.45209754653449   -3.65931127558982
C          -0.99433781530122    2.64266391202943   -4.40155291678405
C          -1.41688015231364    3.69616143499867   -3.64683956754240
C          -1.62288972413130    3.38349674055616   -2.27857613740831
S          -1.19927840242578    1.71855671973209   -1.98581644414034
C          -2.01968564124154    4.25226652066120   -1.28299787393798
C          -2.32299614776960    3.91526891196142    0.04257795653323
C          -2.21024687939873    4.85616946869278    1.16265617593886
N          -2.36831496238350    4.32429084548649    2.33663309835646
C          -2.65108177674123    3.00719601604999    2.11066414701867
C          -2.66501156958476    2.71713272098128    0.66939835016153
C          -3.08820146610064    1.37171835351752    0.46177207713291
S          -3.70517172665567    0.73290013862284   -0.93411863257398
C          -3.08322783904393    0.77429096837834    1.78229235935346
C          -2.90103609219005    1.83795256671363    2.78383289447996
N          -2.94138045765976    1.32162433836971    4.04780862686185
C          -3.07944362970562    0.03916918895210    3.89671445602999
C          -3.14449291399685   -0.39946830180815    2.49121888220338
C          -3.13574494390803   -1.76504979034534    2.04827826097758
C          -2.85770898902256   -2.10544610125812    0.72908182921108
N          -2.75313960688336   -3.34416585469159    0.24548804044878
C          -2.91487913443387   -4.37639187409517    1.02772904252634
C          -3.21509090758330   -4.20170558643447    2.39227800345304
C          -3.32538878245741   -2.86694242987605    2.92246918031896
N          -3.60983127793478   -2.87465716066255    4.22471903350761
S          -3.72501581211211   -4.40150194068156    4.71951662938666
N          -3.42385492011956   -5.13021804872436    3.32763021715631
H           3.89499508795678  -12.35566539708552   -6.26974846922717
H           3.01470205441698  -10.03901305135875   -6.68916268763652
H           1.39605065927061  -10.48614367588413   -0.73529011320588
H          -0.81750880419999   -3.25068646424940   -1.40942457094051
H           0.63386873809610   -4.11011699424698   -5.09907687271012
H           0.45399662159196   -2.02125959297844   -6.44355544735742
H          -0.07148973553992    0.49545690576405   -6.22935055218851
H          -0.81551121133701    2.68733996062677   -5.46052530749049
H          -1.61455059333348    4.68097913618141   -4.03171041819590
H          -2.04837404345851    5.30485573329164   -1.53759868978645
H          -1.98078437928462    5.90317660707862    1.06004378183662
H          -3.13913960328522   -0.62380995839809    4.74078534192247
H          -2.69067259634272   -1.32746240637961   -0.00220418204460
H          -2.79891641968394   -5.35784421312935    0.59447970468394
