96
 SCF done       -187.638258603630          0.000510635227
C           3.77134202714142    5.55198983420034   -5.55768600064075
C           3.34300725016506    5.08457595401156   -6.77356857597724
C           3.13116697836484    3.70624346279068   -6.99020073156918
N           2.96164936298424    2.58747652342616   -7.17778660182168
C           3.08171857377666    5.88022293204780   -7.90274143198292
N           2.85271658564403    6.47266773918994   -8.85992397964755
C           4.05419056104754    6.90625563921294   -5.15516789046553
C           4.49088823928273    6.99667599032843   -3.81755707114883
C           4.80610174603519    8.24104938267682   -3.27767770702370
C           4.68862870351265    9.37103834979345   -4.06173955045658
C           4.25960206536498    9.27939582189032   -5.38156595947311
C           3.94092737369902    8.05543305095753   -5.93503651031925
C           4.56298021816627    5.72220564273762   -3.14444238007171
S           4.05252521645057    4.44046483455685   -4.23858962545764
C           4.98376369570476    5.52697924430374   -1.86674524927920
C           5.09695241229533    4.31797862848850   -1.14410865951726
C           4.75203536127365    3.01483941337512   -1.47266505478301
C           5.06113835870196    2.11772356914020   -0.45353990396884
C           5.65062556718217    2.73569371395413    0.66727829417031
S           5.80928252159697    4.41954888997901    0.46822713109222
C           5.94724377918357    1.74183408710291    1.62714689421608
C           5.54926885468217    0.49134277030923    1.12130831919530
C           4.96611153283222    0.68908636035955   -0.19798332528383
C           4.42940597474608   -0.26445015713553   -1.01171181841234
C           4.39494926730442   -1.62575043874299   -0.64353184972780
N           4.36913497108800   -2.73138815330203   -0.34025525921054
C           3.86146423840247    0.05046193084210   -2.26516220729335
N           3.39128273242072    0.30604042987164   -3.27866112356105
C           5.81760859386081   -0.55862752736987    1.99642175409277
C           6.41508022510838   -0.12229447164542    3.16739828115688
S           6.64356171791382    1.62606429449241    3.18042056919922
C           6.84006205025120   -0.90206861696259    4.27955156822522
C           7.38711830723845   -0.33390982641330    5.40642316609049
C           7.83131941030584   -1.03612267708754    6.52081415923051
C           7.75536978027192   -2.49684462370954    6.57806479886697
C           7.24917548055186   -3.26408637902243    5.58741238206392
S           6.62567661099609   -2.64070946748399    4.11503776530801
C           8.30294501755635   -2.84766493637299    7.84299978854099
C           8.69185314122024   -1.69752425354137    8.53631668751269
C           9.24071445849403   -2.01437449908731    9.79942334112242
C           9.25257907682323   -3.35484910548213   10.02271659009658
S           8.60321647443265   -4.29140546056572    8.72221467332356
C           8.39882747723894   -0.54630265495807    7.71913117440033
C           8.59027067589874    0.82293402542546    7.98376910541450
C           9.11513190851781    1.38975453444832    9.10646598416397
C           9.24138086214307    2.78674405594412    9.27395928619510
C           8.87580933777056    3.80396508787566    8.39750729839687
C           9.14128675282750    5.06487917598955    8.91088762839206
C           9.71850674252136    5.03412690747335   10.19490000017273
S           9.92981573537906    3.43127963769593   10.76006655051248
C           9.93823717565259    6.36230195537554   10.61717383057067
C           9.50052160557749    7.24132647913503    9.60180331731039
C           8.98373219225428    6.45385670795806    8.49968400017298
C           8.45174132729797    6.90312980312069    7.32583974574605
C           8.32915187773214    8.27762540171917    7.03067000788292
N           8.22182671401082    9.39268525337606    6.78718196790337
C           7.98313598752978    6.02046711299807    6.33138383448844
N           7.60298787643546    5.30211729022659    5.52128762834215
C           9.67613057576038    8.58428661905819    9.92387492178403
C          10.24244907567163    8.75517344313942   11.17751824727687
S          10.55962136940910    7.20143468564049   11.96409736815418
C          10.58700130547875    9.91871805604054   11.89819361776116
C          10.47735816347690   11.22088776032443   11.52026507481240
C          10.84554266226338   12.36148940187678   12.32161474478602
C          10.63608863649325   13.59844844141993   11.67710828121707
C          10.09860581674581   13.44997562551499   10.34928477903068
C           9.77895207948788   14.42053369832470    9.43350061259672
C           9.91945740335770   15.80414447279963    9.63545498155809
N          10.00921915194313   16.94508582530448    9.73693563759128
C           9.26638184679276   14.08307687027243    8.16325627158163
N           8.85235451552394   13.81971947989619    7.12637837916777
S           9.86625801864414   11.76310475838864    9.95938362330891
C          10.94519881494868   14.79054613606414   12.32950797803723
C          11.45678845262445   14.74496594427405   13.61051184722105
C          11.66399872142165   13.52611390823134   14.24833974278760
C          11.36283267739827   12.33782894213689   13.61483992160963
H           5.13916674508057    8.32684590654488   -2.25540599669946
H           4.93286254907465   10.33619994139922   -3.64485101014669
H           4.17380928295024   10.17234188638947   -5.98088463767045
H           3.60862948556612    7.99202396870722   -6.95793058106479
H           5.29348834625637    6.40821803463229   -1.32019789003730
H           4.29472773439221    2.73661040595226   -2.40361433161125
H           5.59581756707633   -1.59303905585212    1.80458623818977
H           7.47046086141326    0.74490358449787    5.40556447629024
H           7.19850238062703   -4.33949741840988    5.65180254189382
H           9.61238344164931   -1.30693249478427   10.51724434156335
H           9.61107908406576   -3.87007397497241   10.89237274677673
H           8.27137175520998    1.48929184522404    7.19488456583178
H           9.45371236666094    0.77220726204641    9.92346245574846
H           8.43596545870152    3.62452953924109    7.43467895932234
H           9.40093616598340    9.39791930273348    9.27925323100269
H          10.99482864408281    9.73505055240658   12.88371950896795
H          10.78674032369704   15.73787140876892   11.84139930573893
H          11.69730838429724   15.66482628869455   14.12036726833628
H          12.06464989239831   13.50911773344341   15.25056700806583
H          11.52778148069318   11.39981254468618   14.12138671276163
