88
 SCF done       -186.777146761119          0.000466958372
C          -0.56654971050202   -1.04031965100888   -3.73904156379413
C          -0.65621108771275   -1.56330074409702   -2.51540942877670
C           0.50466788653743   -2.00176170990970   -1.79225425796000
C           1.75863695729327   -1.74417829824841   -2.22665562726324
C           1.96850133304668   -0.93166550051441   -3.49180339617155
C           0.75648761143278   -0.94567119642713   -4.44989529810113
N           0.70125032162252    0.19214908390404   -5.33720219914209
C           1.26879140786901    1.25938451242062   -4.99358065288063
C           2.04292454258459    1.38396382199437   -3.74294525453944
N           2.36171880073825    0.38920284670482   -3.04518242889295
F           2.38690204907634    2.60239679009742   -3.34186656647318
F           1.19048860575157    2.32420600734893   -5.78348637063072
C           2.93376959196488   -2.09940099956925   -1.49102963251266
C           3.02203556003649   -2.85091247669182   -0.33312556839552
C           4.33861412755089   -3.00005617713558    0.10249156958096
C           5.26557879556054   -2.34917453322524   -0.72866383939945
S           4.51395553065538   -1.56111427689487   -2.03987640616577
C           6.56796059226451   -2.56580239673630   -0.20748246963922
C           6.46268140056243   -3.35569293348687    0.94874752943017
C           5.05757941710570   -3.65241246467079    1.18427187628583
C           4.52972254785793   -4.38757029803487    2.20468982538693
C           5.33687818602023   -4.97550403777850    3.20112829588074
N           5.98990659817222   -5.45534810654137    4.01237230033578
C           3.14201870731037   -4.60847585384526    2.32807992832235
N           2.01427510004681   -4.78996647431721    2.42967957217730
C           7.69851969658788   -3.63416943457816    1.53250848854062
C           8.74221723904252   -3.05971204056925    0.83113175943233
S           8.18611040653192   -2.15955596115858   -0.57344826249150
C          10.12693109294472   -3.13682709221207    1.12639007846121
C          11.17118972021982   -2.53126358136835    0.45267758935576
C          12.40673690278847   -2.83499474067944    1.02508807787420
C          12.29964081821101   -3.68174847656198    2.14089101482575
S          10.68114093054044   -4.09966375052515    2.49002176318235
C          13.60075983337524   -3.93271346016610    2.64557137051631
C          14.53049269158503   -3.24064933619234    1.85201335605971
C          13.81193388664309   -2.52928770742886    0.80610347210005
C          14.34383008546580   -1.74550562909207   -0.17497881792347
C          15.73273061054462   -1.52465279360256   -0.28757885363595
N          16.86126186052103   -1.34522520900601   -0.38185981226134
C          13.53992195271770   -1.10802188575653   -1.14334900467490
N          12.88778669402576   -0.59104823551066   -1.93215002528565
C          15.84793103429834   -3.42645541288802    2.27157518790548
C          15.92686242068892   -4.25762636772345    3.37351884625748
S          14.34587317719271   -4.81638516852670    3.90302595250730
C          17.09430650497956   -4.67119304848922    4.06415878957655
C          17.17871916367342   -5.54614034687006    5.13110654986968
C          18.49569100674848   -5.72321327558704    5.55607889053537
C          19.41823046516827   -4.97351108053887    4.80867729388159
S          18.66886304288508   -4.05543896968256    3.57988063551543
C          20.72273702860241   -5.22313419179951    5.31047070481994
C          20.61868994738096   -6.13005486357806    6.37950800402857
C          19.22056891268273   -6.47867450839621    6.56694359123734
C          18.69722380832738   -7.33976534856976    7.48670023898591
C          19.50829000175036   -8.02720863595632    8.41335465829646
N          20.16542153140414   -8.59101078733127    9.16538613055133
C          17.31364740847872   -7.60208684579388    7.56697646947694
N          16.18915051255996   -7.81750999838609    7.63102934619202
C          21.85413069625301   -6.43630314616219    6.94769832519424
C          22.89675889493699   -5.76519608367439    6.33134672542923
S          22.32984154224174   -4.72917931196485    5.03179451116714
C          24.29538654706031   -5.88033417899243    6.62489645723520
C          24.79330530358911   -6.83892556654003    7.43807417812073
C          26.19690711706814   -6.96566922331890    7.70889893122231
C          27.07757008562547   -6.04844954164470    7.30569605926408
C          26.63220707945495   -4.79644635594855    6.60208646480318
C          25.25839752662709   -4.94233899694525    5.90753429061486
N          24.59827085825165   -3.67500548497084    5.70138435289329
C          24.83458004855894   -2.72514548247103    6.49160815255103
C          25.85149996725719   -2.81554612517556    7.55550546868331
N          26.68964862502348   -3.74927860453737    7.60260588796586
F          25.87511358006599   -1.85832060723134    8.47612575511477
F          24.18945127272196   -1.57564288192780    6.33516428900423
H          -1.42362820361002   -0.69736390347635   -4.29529572555095
H          -1.61559864669336   -1.66569127926328   -2.03211056153410
H           0.34582555057027   -2.52554848132447   -0.86349153705938
H           2.84320250756607   -1.33312700412952   -4.02461832817374
H           0.83117379789595   -1.82319747162101   -5.10909471892754
H           2.17025796771903   -3.27734501868332    0.16253673086536
H           7.84738661165315   -4.22162528128511    2.42074928920827
H          11.02281192677980   -1.90321586758718   -0.40741518182567
H          16.71461201459892   -2.98943855173470    1.80893850333610
H          16.31727015333907   -6.02302553141930    5.56332738337529
H          21.98648709866093   -7.10385318011496    7.77845789028490
H          24.13031557074448   -7.54758207811140    7.90726714277178
H          26.52130236810177   -7.83284412629692    8.26320664841029
H          28.12430873149541   -6.10450923802832    7.55242765821912
H          27.38492707598683   -4.51867077260273    5.85078447517390
H          25.41077106958021   -5.35934737183187    4.90128706181525
