98
 SCF done       -202.160309205959          0.000415119313
C          -1.27296331737986    0.99023946283295    0.06546693482674
C          -0.85933906841468    0.34241730773172   -1.02373629778280
C           0.47433639910043   -0.18559330186640   -1.12871873223684
C           1.30753343666007   -0.23740609954111   -0.06842530151188
C           0.81891693989433    0.22582103366000    1.29139682199877
C          -0.33848281541454    1.24444729046152    1.21769557819304
N          -1.12821653504180    1.31172078613320    2.42565289963093
C          -1.17592904785541    0.30061221598497    3.17081027510875
C          -0.41241302996205   -0.93156999621428    2.89114045416599
N           0.49670116818704   -0.98030890575813    2.02584244190796
F          -0.73201813490344   -2.02849528777150    3.57000037516258
F          -1.92887070173725    0.33146878508479    4.26502124138750
C           2.62251366371546   -0.81228047544592   -0.12148805836167
C           3.26252376617848   -1.37332863321923   -1.19097779374568
C           4.56834518367002   -1.83758501077104   -0.90528036293768
C           5.49366779080552   -2.42738763454539   -1.79133940771979
C           5.20580923340218   -2.54424748829461   -3.20664023265982
C           4.62241782317253   -1.61653217939063   -4.02151122332679
C           4.49919790138235   -2.06450238259566   -5.35453608129661
C           4.97563699596540   -3.32417258042100   -5.57366972845091
S           5.60397809872934   -3.98478836709927   -4.10201242432064
C           5.00810565534577   -4.10229273078530   -6.83730729528184
Cl          3.80131924708442   -1.08542038846447   -6.58938513973671
C           6.69186859961129   -2.86053744938870   -1.23781128283109
C           7.02730330573822   -2.68656548163192    0.12882565603955
C           6.12612499763844   -2.04711478065422    1.00331190190370
C           4.90671623245782   -1.65569272436044    0.45779556827019
S           3.62366548339969   -0.85545809157216    1.31600782240000
C           6.44310370038245   -1.77961220461569    2.39112454197137
C           5.60851895533090   -1.83530620305024    3.47040144676111
C           6.24034306618832   -1.44543501070085    4.67127378238014
C           7.54656671510564   -1.07746792132556    4.53106637887302
S           8.02497036962538   -1.22343284545868    2.87402950477136
C           8.50343011599577   -0.61494911563997    5.56750732163191
Cl          5.41276961540161   -1.43781723018120    6.18150644363073
C           8.29990542862040   -3.22667805306719    0.42876293036105
C           8.93913839376123   -3.75976979162221   -0.65367414617426
S           7.98416412390252   -3.63214142494909   -2.11610596802917
C          10.22242005486471   -4.37028420490015   -0.68886550541752
C          10.88564825544602   -4.87452295649255   -1.78858587277983
C          12.13565982506799   -5.39776269359408   -1.44965046505550
C          12.41936173780123   -5.29100716327395   -0.07867355976056
S          11.15433705643886   -4.54391626042261    0.79104024477682
C          13.70450824344041   -5.84157964715943    0.16685806975206
C          14.22927022118032   -6.29942193630724   -1.05481201165268
C          13.26453455443400   -6.03180420184439   -2.11045013076292
C          13.39782129464562   -6.30756494837674   -3.43984262673259
C          12.39212493001691   -5.99759403901633   -4.37920205136230
N          11.57960430909518   -5.74822261921173   -5.14889508798164
C          14.55715384113967   -6.91707082451520   -3.96285274145299
N          15.50047006636531   -7.40955395703458   -4.39058455424787
C          15.49359667257483   -6.86544606142532   -0.92052965028615
C          15.93864520142819   -6.85581772213835    0.39340603875142
S          14.75609304150207   -6.13525495339502    1.47625456240528
C          17.20081840179383   -7.31397584717826    0.87801110395290
C          18.22483259370087   -7.65914422720013    0.05575144273306
C          19.49807374832418   -8.06432573554400    0.54055488200403
C          19.73201467160781   -8.34374177026105    1.84383780545142
C          18.57157535934077   -8.28933330506867    2.81682229591906
C          17.45473476584626   -7.31748740173588    2.37786582791929
N          16.21075112135477   -7.57061168781964    3.06592530998601
C          15.94385371198586   -8.74837785457792    3.42047750897392
C          16.90494159991111   -9.85521959154770    3.26040171639631
N          18.11633218112881   -9.65287785944184    2.99654826250777
F          16.45954437342797  -11.09613692087222    3.41451054031035
F          14.78188429980131   -9.00210893071309    4.00897539507391
C          21.01629238417766   -8.79453442375237    2.33071956950581
C          21.17469714658870   -9.47059086803799    3.53540948949194
N          22.33083803257174   -9.89867818281986    4.04874816358698
C          23.45223289391250   -9.70467169392230    3.41150107498035
C          23.46535279311298   -9.05030006384546    2.16638065149020
C          22.22288637838986   -8.58377162180261    1.60860881394994
N          22.41262629951474   -7.97364577657267    0.43747865496536
S          23.98082037265213   -7.99885301051786    0.08362387595752
N          24.50858822515787   -8.77158975447257    1.38290187115008
H          -2.26770506901092    1.39275814745126    0.16720415165475
H          -1.52311641564945    0.19990528729127   -1.86270141259816
H           0.78722055673380   -0.56221881343589   -2.08932606480226
H           1.66185186521246    0.68266648501204    1.82978857816644
H           0.07780650177923    2.25373737868529    1.08430327352871
H           2.81045455895953   -1.48066729580359   -2.15856758691401
H           4.33304554194505   -0.63211109801205   -3.70302591388219
H           4.55962926717952   -3.52082674510191   -7.63896266419935
H           4.45952053157584   -5.03705579093173   -6.72731112903848
H           6.03464573284256   -4.34690482937721   -7.10827948489342
H           4.59068528251571   -2.17560478479066    3.43026336015562
H           8.00861273641639   -0.58749279545770    6.53497156822937
H           8.87456411591276    0.38168053504807    5.33044294256806
H           9.35990867705279   -1.28598637903309    5.62632240415617
H           8.73302857322224   -3.23535589537296    1.41218558706061
H          10.46580657379969   -4.85327837418531   -2.77821645011075
H          16.05993537483304   -7.27820776169793   -1.73418280489686
H          18.09598972423980   -7.60677487763764   -1.01325667103956
H          20.29985933894073   -8.15979407485635   -0.17391643855642
H          18.94235819902756   -7.96291497651548    3.79870594997185
H          17.74354211153334   -6.29327169783199    2.65525001393089
H          20.31247491370874   -9.72436151945299    4.13334868053467
H          24.36256089176476  -10.06151649863173    3.86976035150238
