124
 SCF done       -248.985917929186          0.000623370079
C          -1.99790402698325   -1.93711778375782    1.72799073761825
C          -1.46621737973104   -2.12521561873547    0.52003051205676
C          -0.05129306017555   -2.30627565462791    0.33578783005810
C           0.78478040043579   -2.50029635896802    1.37707522518798
C           0.22322954288177   -2.57555242849850    2.78470225254181
C          -1.12649894938443   -1.84638734792635    2.95176992281821
N          -1.89565269461532   -2.30660603991726    4.08500411538291
C          -1.71639253784693   -3.48043548752491    4.49685535513414
C          -0.71185524181426   -4.38667404545613    3.90663928681056
N           0.17585195867058   -3.98536463570391    3.11391044153215
F          -0.78170695231523   -5.67747988463239    4.21500664865030
F          -2.44186105326797   -3.93357662819044    5.51343183148019
C           2.18994069124815   -2.75800979645080    1.23032997279000
C           2.92583958854782   -2.84585585781941    0.08194188623003
C           4.29860363786318   -3.11620700932336    0.29477726508917
C           5.31946393880024   -3.24063398431179   -0.66984380174082
C           5.05698572277146   -3.00976222003854   -2.07644909394909
C           4.31427448270205   -2.01241049770001   -2.63979781449815
C           4.27508215879095   -2.09385221353109   -4.04889217886237
C           4.97213352357624   -3.14257456994102   -4.57404148448476
S           5.71098026986168   -4.05857424574964   -3.30455337179908
C           5.14575579293750   -3.52952902396792   -5.99659480206676
Cl          3.41290276818338   -0.95180347992386   -5.00951584500329
C           6.58122004936195   -3.57755070100461   -0.19732716380153
C           6.87993898040088   -3.74825632756931    1.17810333884109
C           5.87181026505627   -3.57554446145182    2.14710104885788
C           4.59834264394199   -3.27883238630020    1.66923752815974
S           3.18443150285402   -3.02548616969984    2.64814978045742
C           6.12976721073441   -3.67351425068427    3.56914679985504
C           5.32042474858464   -4.19840688180031    4.53578519556938
C           5.86161769508467   -4.06712585245501    5.83288170935905
C           7.07014183621449   -3.43577217889950    5.88170860710777
S           7.57121664818774   -2.99873478189500    4.28399507977944
C           7.91867740790390   -3.13727301308764    7.06271940284295
Cl          5.04696204217407   -4.65493232467850    7.23140562264371
C           8.23496062099847   -4.10193719969260    1.37952941368163
C           8.96290936424842   -4.16485872090382    0.22625703411590
S           7.99744173411727   -3.79917189336876   -1.18817080447352
C          10.34041835691529   -4.48649743696111    0.08534549860705
C          11.09186733103788   -4.48705939374981   -1.07118347759657
C          12.41929545294346   -4.85162948924360   -0.83168618196797
C          12.67122026926402   -5.13568847504716    0.51920119473421
S          11.28365809884622   -4.94651686983255    1.49519932295194
C          14.03713160769304   -5.49834250345373    0.65998455990338
C          14.64767760164266   -5.43491197874782   -0.60215440656940
C          13.65261722711278   -5.02620119485305   -1.58186627360571
C          13.84024534002339   -4.84303215654939   -2.92050040094500
C          12.79540242839473   -4.44471271317008   -3.78062872105137
N          11.95262582014890   -4.12191029541984   -4.48807244538654
C          15.09507682362749   -5.03739798681539   -3.53461871829891
N          16.11431588127153   -5.19264621971989   -4.03682650565707
C          16.00128850229283   -5.77435290409766   -0.56932899333803
C          16.42038853139752   -6.09962303834010    0.70646084395432
S          15.12443894085432   -5.98099914200155    1.88317528940583
C          17.72721585718526   -6.49064063800842    1.11295101234284
C          18.84811214137522   -6.57449616904408    0.33583269063352
C          20.00137785324458   -6.98947727975897    1.04306407964888
C          21.31370167367810   -7.14427669594126    0.55047462751914
C          21.67862266384353   -6.82237512366404   -0.81357208475733
C          22.57612643949661   -7.46758693865865   -1.61760773681183
C          22.72856754861101   -6.84619965878101   -2.87434259010596
C          21.97336456088801   -5.72204365568649   -3.04688916006088
S          21.03523687565328   -5.42010877427889   -1.62805245205642
C          21.87989802945338   -4.84600569160721   -4.24180973448248
Cl         23.78554522313480   -7.45414985675685   -4.08915062893255
C          22.26339753097561   -7.60013753665596    1.46063162723705
C          21.97839999365740   -7.87114463555944    2.82123657713589
C          20.67148683185571   -7.69503224265449    3.31899743335409
C          19.71606929375185   -7.26746894513417    2.40307309447628
S          18.04339696780709   -6.94998801170625    2.77176013932156
C          20.31896849609785   -7.92544196435621    4.70522960625108
C          19.16432188793817   -8.47052888396234    5.19053160389549
C          19.12148381350598   -8.49559155877749    6.60079458168990
C          20.22142756813193   -7.96613213815736    7.20978223827081
S          21.35475021056025   -7.43007764567601    6.01698608016251
C          20.51121474358675   -7.83660139763981    8.65999671734112
Cl         17.77966967303139   -9.14052052863857    7.46576733819399
C          23.12533602618450   -8.31151871802335    3.52607283573245
C          24.25898619061478   -8.36079258855616    2.76890047039913
S          23.94899171779552   -7.85830497413785    1.11454708979235
C          25.59163263616265   -8.73290966211632    3.15646844306550
C          26.65958240520166   -8.45935677802355    2.37864302264411
C          28.00479534803703   -8.78134145210936    2.76508533858542
C          28.25690701569626   -9.53820721998011    3.83318077753853
C          27.13636826618535  -10.15046127972516    4.62808921604297
C          25.81016506221158   -9.36136166844290    4.52816488775709
N          24.66901768241359  -10.17186741843206    4.89096341311243
C          24.71019520565271  -11.40627118902215    4.65386347044552
C          25.91988461928457  -12.07941973005460    4.14707819328336
N          27.04504789556402  -11.52152541226772    4.16296508087260
F          25.80573806266282  -13.32487629764363    3.69807711474434
F          23.65388166788318  -12.15707984350058    4.95049247793099
H          -3.05521045830919   -1.80429245077559    1.89027141562719
H          -2.09339009409402   -2.14670987645660   -0.35806257370990
H           0.32474327560483   -2.30454115761104   -0.67473448662927
H           0.95404813662119   -2.13486095073058    3.47794116767998
H          -0.93831258968311   -0.77926146385320    3.14028404327674
H           2.50242058259951   -2.74706948895571   -0.89955337482949
H           3.84894235032526   -1.22024980232990   -2.08274206014031
H           4.57444148699942   -2.85850907393359   -6.63311845521238
H           4.80521587203240   -4.55114733742952   -6.16072754550935
H           6.19645634178838   -3.47758566985570   -6.28058649772984
H           4.38886931406830   -4.69549164867901    4.33973186319061
H           7.34055209414249   -3.27590353797835    7.97298305252640
H           8.28647114529084   -2.11353428038701    7.02291531530235
H           8.78144208301452   -3.80358020497937    7.09352091337713
H           8.66458143857895   -4.31427711081383    2.34140767742905
H          10.67885837587269   -4.23037980589210   -2.03012386891937
H          16.65179416656871   -5.78841254944147   -1.42361438296213
H          18.84246887885700   -6.35127691260015   -0.71366369358842
H          23.08567690466329   -8.37373255564548   -1.34877959605552
H          22.86479258729929   -4.71744262891539   -4.68773996306041
H          21.47505079674513   -3.87384198396520   -3.97252363005409
H          21.22650990159426   -5.29471709596522   -4.99166523014009
H          18.38300293104999   -8.87903951450266    4.57732789022206
H          19.63517479389451   -8.12666395347244    9.23478320000646
H          20.77818036545390   -6.81059057503220    8.90922070432552
H          21.34511575416654   -8.47918536158580    8.94274389831288
H          23.11284907563221   -8.59058526542018    4.56142213245281
H          26.51014593429471   -7.97087494820052    1.42689437063568
H          28.80839442093869   -8.39586119898613    2.15675622856827
H          29.25383524668610   -9.83992082606904    4.10707367396741
H          27.43389609790521  -10.21761716756172    5.68402220541282
H          25.82733358993567   -8.53581962621448    5.25378066011644
