95
 SCF done       -173.958820790233          0.000401799856
C           4.19697433024375   -2.71161186405407   -5.21878798514607
C           4.63096942339398   -2.67556330305309   -3.75190107745141
C           5.88186453025573   -1.86975390576410   -3.58517251956426
C           5.85095229582537   -0.56551762107890   -3.06797765154129
C           7.06358894016597    0.08629145406955   -3.07554998305840
C           7.42110527184497    1.39428612963601   -2.64925681693526
C           6.56074587371671    2.31381272670764   -2.15181948117600
C           6.90440501132156    3.63788994793100   -1.74108273145202
C           8.18149711867323    4.13458555011829   -1.67187000613466
C           8.52695858159085    5.43523635984189   -1.30248795868732
C           9.78996462003131    6.04200354629821   -1.20544578167825
C          11.07022540674278    5.55200715008914   -1.58271529910779
C          11.32676235740120    4.55821016208730   -2.46414601486390
C          12.62405971553526    4.05823643614690   -2.76573980469096
C          12.89824759482079    3.02378914472531   -3.61945057717388
C          14.27541579638210    2.69336897145925   -3.71731058126838
C          14.96336553539544    1.71308983443080   -4.45183283339389
O          14.47473678472414    0.77055268673919   -5.30606142347448
C          13.10136538070796    0.48142412957197   -5.36740626491413
C          16.34596105091569    1.68427204313149   -4.31918337062138
S          17.31209808653386    0.50934092031112   -5.15764961516047
C          18.76564757925516    1.17307153627536   -4.45124070390044
C          20.06359922427360    0.64324530914758   -4.77781352857165
C          21.20338573944161    1.34407088865064   -4.60056791031484
C          22.49697822175827    0.80763118447339   -4.92453064103543
C          22.66165088032780   -0.47743655359687   -5.23899733805677
C          21.49793697018621   -1.42914816944063   -5.21414259159914
N          21.57992771477847   -2.13513336710372   -3.94787955009975
C          20.51044513920103   -2.51702516329606   -3.41033301367425
F          20.55058701351647   -3.14856145495868   -2.23992769721215
C          19.19604415609053   -2.31835172350218   -4.04899402469336
F          18.17696220958133   -3.05500715181976   -3.61766428465544
N          19.02913002075809   -1.54122682015127   -5.02420036917060
C          20.14412063883036   -0.72419039927822   -5.44356514501205
C          18.49997843991849    2.22302793246385   -3.61464931217511
C          17.12242536778727    2.54867525999812   -3.50362820776250
C          16.43164974686600    3.52017509967564   -2.75551369939722
O          16.91470931914001    4.46231422918126   -1.89592054202362
C          18.28695298812148    4.57808537155698   -1.62734491715299
C          15.05115448730318    3.55038317346208   -2.89273118825367
S          14.07579808011361    4.70217812986349   -2.02628423225017
C           9.57957899671765    7.34098617203907   -0.62365887174043
C          10.34266052919446    8.46549706305943   -0.23795000502062
C           9.55537214918485    9.45893952261474    0.24983781376384
S           7.86441262804182    9.07899015588310    0.25831586710016
C           8.21415058463785    7.53329713234821   -0.41089931827667
C           7.50080732426938    6.37563201630897   -0.82109324710249
C           6.17768514766869    6.10700304156292   -0.79880581127406
S           5.50059957269768    4.62312165173606   -1.32984636551220
S           8.28654724789372   -0.94412640315041   -3.76114946477437
C           7.14451301530207   -2.23844353554985   -4.01128334626426
C           7.64027479445215   -3.44032577444272   -4.63972040213058
C           8.57563451874922   -3.39088900627703   -5.60849674664481
C           9.10597287514974   -4.57356317805790   -6.23101926373300
C           8.86296823163137   -5.78659664906312   -5.73537609234465
C           8.07884822179660   -5.95528405829389   -4.46176774778093
N           9.06908237550503   -6.14571383091987   -3.41959420342438
C           8.82834654180645   -5.70003234008798   -2.27041517480071
F           9.73287315432051   -5.83651354177958   -1.30582437339315
C           7.54700386393059   -5.05233712516743   -1.93248879000212
F           7.23344684893212   -4.92275537761440   -0.64713907025259
N           6.71815425425925   -4.68913678752138   -2.80525770457115
C           7.09723829074377   -4.79173697854738   -4.19795813824779
H           3.29048755666970   -3.30202546067678   -5.32896990821694
H           4.97512385242909   -3.14644678559301   -5.84262861655734
H           3.99855842706745   -1.70438801171788   -5.57944791645963
H           4.78460984316468   -3.68621777857750   -3.37877796795632
H           3.84067216549393   -2.21339947044996   -3.15796066655433
H           4.94897480698157   -0.11323450646873   -2.69630497949717
H           8.46886392293507    1.63612762116743   -2.75818915590946
H           5.51243749869245    2.06094627715061   -2.07285179897318
H           8.98230238517115    3.44476516943947   -1.88647332530284
H          11.91740854732720    6.05455847917429   -1.13079993196251
H          10.52287450968456    4.09470069461518   -3.01787403960494
H          12.10888069868772    2.52936973055999   -4.15320996002598
H          13.02746182467300   -0.43619178316677   -5.95091818189595
H          12.54701590402552    1.27350868230580   -5.88079450778583
H          12.67832954976125    0.30905405170787   -4.37394723720091
H          21.16552269636461    2.34737701401752   -4.20697330363482
H          23.34090954639981    1.47990343849148   -4.89085685744256
H          23.63123520386852   -0.90937325026419   -5.42129171877301
H          21.63847832917672   -2.19629534771358   -5.98875711105808
H          20.00023165498022   -0.56010558980063   -6.52102392994265
H          19.28627848222357    2.72008157979837   -3.08121763379872
H          18.85389471546561    4.83023039140687   -2.52879343192928
H          18.68740743080983    3.66771620265967   -1.17110042173021
H          18.36936342184210    5.39844505754793   -0.91441920498807
H          11.41242937149824    8.53888556627823   -0.31376999842272
H           9.85971522850554   10.41996428447023    0.61637803097464
H           5.44559691667992    6.81839043200484   -0.45024052010567
H           8.94168597449050   -2.43246226390139   -5.94573870994345
H           9.71965214488743   -4.44681594208629   -7.10968884952010
H           9.30193619731718   -6.67967550010991   -6.14687871793650
H           7.51383599955979   -6.89686702876257   -4.50438278892374
H           6.16941638278788   -4.98163593354453   -4.75332950797992
