97
 SCF done       -162.601182604565          0.000188402760
C          -5.60540935242845    4.19394072046677    3.34280758787469
O          -4.56572303042393    3.63889293692687    2.57875203163133
C          -3.28059676559265    4.03638886342491    2.84900326909364
C          -2.95661640366871    5.00753391221848    3.77611989342810
C          -1.63910580965783    5.39438992552832    4.01908921398918
C          -1.38067707098628    6.43707973403349    5.01223502870132
C          -0.36186457332613    7.36168114811919    4.89772066900499
C          -0.12505340906854    8.36475906205735    5.85221109559339
C          -0.89089266816455    8.49916501508089    6.97943321308400
C          -1.94160809430360    7.58888366093065    7.13381836900893
N          -2.85865417834258    7.45391981627756    8.10651894714332
N          -3.58407987415667    6.43924832821887    7.72169026546796
C          -4.69387778680459    5.97900684522457    8.49990179293844
N          -3.25921000213353    5.87268532340715    6.59086187374310
C          -2.19642989946035    6.57395874338495    6.15889647038465
C          -0.61305543103959    4.75020676071578    3.30483909915534
O           0.67831679261710    5.10139219791600    3.60099745875077
C           1.72726771351203    4.35291465607007    3.04486906767097
C          -0.94028227020195    3.78035297808701    2.37179765337755
C          -2.25849926264466    3.40958037427357    2.10769420871350
C          -2.61440545256156    2.42224216163038    1.11415343328355
C          -1.81414490675650    1.92865562428296    0.15801894116740
N          -2.18711976921264    0.94147332844593   -0.72544505156115
C          -1.65816499660676    0.93371103150615   -2.07293745656307
C          -2.00531828244551   -0.42180658464635   -2.71817198254389
C          -1.97958848003600   -0.35510994696010   -4.20762334974540
C          -2.56568973510446    0.77669342415733   -4.83283042789952
C          -2.44342537595082    0.76198762305238   -6.18292575102730
S          -1.61694200142584   -0.63940372238246   -6.73563597079778
C          -1.43337789894445   -1.23267258082739   -5.10349249346076
C          -0.78087326047275   -2.51195572765363   -4.89325782454009
C           0.32953381324114   -2.87576367351344   -5.65618294872384
C           0.95443894708915   -4.08776081634007   -5.46344939416684
F           1.99182562854552   -4.38790469044551   -6.27103416750917
C           0.53055736610852   -5.00460864573541   -4.49679573670354
C           1.22563096933226   -6.24854559078888   -4.23056510901617
S           0.31227624117940   -7.69331418527976   -3.91429079072503
C           1.75437091385313   -8.60116292786054   -3.70357211052346
C           2.86511867214479   -7.84063653566304   -3.85370145257311
C           2.57733742696012   -6.48381739798822   -4.15147413335787
C           3.61374442822762   -5.45501951175267   -4.29521911972318
C           4.69375856086510   -5.67338010404352   -5.16191080828274
O           4.69543816228862   -6.86371548792420   -5.82123314199388
C           5.67104896143554   -7.08604482008171   -6.80878124877793
C           5.66711363005735   -4.69253300872253   -5.31601361037166
C           5.56206268064746   -3.50790000975981   -4.61363171109310
C           4.50706623471029   -3.27697804051711   -3.75096115630239
C           3.52915516054425   -4.24955564431784   -3.58539764760655
O           2.46221180405087   -4.12508387217235   -2.74028331181406
C           2.24373924126558   -2.89067441110544   -2.10622860814319
C          -0.61499374914137   -4.66735959884811   -3.77703679684014
C          -1.24606256135352   -3.45974567959520   -3.97889880239603
F          -2.37511180380587   -3.21509394695504   -3.27650903035859
C          -3.16462100826221    1.82512022686479   -3.96206329236979
C          -2.12722271449784    2.17961188852585   -2.88962812935361
O          -1.05271067544357    2.80054321211884   -3.57040869754276
C          -0.24082507241069    3.62778739970448   -2.78029035619242
H          -6.51522224750590    3.69776233900390    3.00589942246062
H          -5.69974599834032    5.27197998592380    3.17307978588350
H          -5.46340211598906    4.00770261889698    4.41213292358838
H          -3.72613197518279    5.50057368292031    4.34421811932474
H           0.27911566458399    7.32310047327940    4.03241955249833
H           0.69361251512352    9.04888489463932    5.68047999928451
H          -0.71116123558537    9.26152546196404    7.71990712033508
H          -4.65661275217145    6.47786848634075    9.46540719245768
H          -4.62858121817290    4.89861126738128    8.62557693184827
H          -5.63243314655426    6.21924285250719    7.99691977396711
H           2.63780653901623    4.74971775420576    3.49264772868312
H           1.78144964736530    4.47429026730715    1.95688149421844
H           1.63964979026504    3.28868051735249    3.28761406700725
H          -0.15821963040542    3.27444966052625    1.83081891079821
H          -3.64170465674785    2.08847272398328    1.15262134066631
H          -0.78939766517016    2.25241211398950    0.04303530870864
H          -3.17248014035693    0.71299553502692   -0.67603457652317
H          -0.56660497308283    1.00459949657733   -1.99713868388292
H          -3.01388856434716   -0.71015464908004   -2.40450110473188
H          -1.31885712228993   -1.17896052123786   -2.34046675016868
H          -2.78571853920465    1.48752429769722   -6.89324091086234
H           0.70511853232640   -2.20330390551611   -6.41195886339354
H           1.68680477501470   -9.64702926369948   -3.47806210350735
H           3.86621302991814   -8.21574382746686   -3.74918034469808
H           5.43233504228944   -8.05639314021771   -7.24192030079364
H           6.67936216889547   -7.12079886069854   -6.38220587353187
H           5.63192422177795   -6.32177442544729   -7.59095744869206
H           6.50144550418222   -4.83940016009012   -5.98197954321862
H           6.31793982308526   -2.74744630919245   -4.74076719355479
H           4.45588442770597   -2.34299586392590   -3.21585890960377
H           2.12759241205067   -2.08099869473541   -2.83462355854559
H           3.05062920769820   -2.64330565850287   -1.40877756946842
H           1.31461385737628   -3.00966135203679   -1.55038373150919
H          -1.01274600805474   -5.35530364542967   -3.04733377596443
H          -4.06865667511937    1.44673182457491   -3.47824521880722
H          -3.41413249348648    2.71738773387714   -4.53506155390586
H          -2.56563143987462    2.90099240960246   -2.17811936202972
H           0.43494466226958    4.13458456657013   -3.46676301076968
H           0.35230540453484    3.05921033057772   -2.05383195679705
H          -0.83818834966898    4.37115922179309   -2.23777528939007
