84
 SCF done       -167.937634202605          0.000762057992
C          -1.50963079343140    0.39526556313351   -3.36032680025041
C          -0.71735370892352   -0.65249425384394   -3.74425232327018
C          -0.74453690623786   -1.86221524222768   -3.04630154489658
C          -1.55987830277811   -2.06481906229088   -1.94604917949106
C          -2.40345015270982   -0.98669204472717   -1.53377792762642
N          -3.24276476233951   -1.12421555429462   -0.49042804665967
C          -3.99092826050102   -0.10687626674129   -0.15828679219261
C          -3.93761267026631    1.11308377299068   -0.86018567584974
N          -3.14703213746563    1.28005501973074   -1.88408169560881
C          -2.36472307087319    0.24318737803433   -2.25226060408454
C          -1.55465215893934   -3.32710890661782   -1.25151762581080
C          -2.13542390949298   -3.65415946437872   -0.04601639220392
C          -1.91494317496794   -4.98834922056593    0.30666827342597
C          -1.15775050384592   -5.68774814809669   -0.64567658417665
S          -0.71199679949340   -4.70468800530081   -1.96352403439779
C          -1.00062278953523   -7.02790112944395   -0.20409942657215
C          -1.65593890847314   -7.17237305977358    1.02874578297772
C          -2.25120132242703   -5.89300872573051    1.39182980709619
C          -2.97496175747450   -5.61072315050193    2.51281432185403
C          -3.23339557826394   -6.58515787932490    3.49971766864358
N          -3.44659743282817   -7.37491619347952    4.30337477873454
C          -3.51459356733171   -4.33132152144409    2.76442954204743
N          -3.96200153275932   -3.29861393971784    2.98374584304133
C          -1.56981254907313   -8.46675571225019    1.54167360023285
C          -0.85798725767143   -9.30742122299306    0.70624506304633
S          -0.27892373588056   -8.48194644169848   -0.73444852224722
C          -0.58992967444889  -10.68790150860779    0.88736621649465
C           0.07778706373340  -11.53698766394822    0.02459116460064
C           0.13076868866423  -12.84208212102878    0.51443057736128
C          -0.49723518917891  -12.98447473008411    1.76277007909025
S          -1.15357837431643  -11.51433083918227    2.33378864654993
C          -0.40763030576018  -14.34243612511474    2.16184571399766
C           0.27187445694909  -15.05917640731310    1.16300905998580
C           0.64060026266877  -14.13926233216103    0.09853355112367
C           1.32076159765621  -14.43092086336176   -1.04709365271623
C           1.76654638238414  -15.73630672991711   -1.34281959258219
N           2.13160753317044  -16.79574832929531   -1.58643237795067
C           1.62426480484606  -13.44581855766899   -2.01018443833494
N           1.87299110846141  -12.64747674274101   -2.79492322537917
C           0.39196775156986  -16.41813457492627    1.45488905901682
C          -0.18586305562197  -16.73882082751627    2.66901131420111
S          -0.88762357184402  -15.33645659286618    3.46539713668698
C          -0.27325523366662  -18.01758925727297    3.27548000960995
C          -0.79212048580303  -18.33020986149695    4.51816303377302
C          -0.73613244807491  -19.69968663846378    4.77718334255075
C          -0.17473282802395  -20.43385825285131    3.72060785500349
S           0.29639512715556  -19.44053475525863    2.41354684125698
C          -0.18501127858102  -21.80981580145475    4.07033302865176
C          -0.74894566185645  -21.94244504854892    5.34863938041708
C          -1.10601672960297  -20.62380288910786    5.84107079923404
C          -1.66340786203638  -20.31141871029563    7.04603060282315
C          -1.97881613870239  -21.29057842827139    8.01202947500239
N          -2.24072344075561  -22.07243701315586    8.80883984517243
C          -1.95801124936269  -18.98062074386622    7.41001454755058
N          -2.19787417877660  -17.89894942490059    7.70630518244555
C          -0.82062019495857  -23.27015847419120    5.77751126305023
C          -0.32206047511143  -24.15245743432529    4.84407495704656
S           0.25676713243750  -23.31306211087689    3.40196786736469
C          -0.23657187585176  -25.58900129218089    4.90994409505165
C           0.34103308855833  -26.30708289038905    3.87636173552737
C           0.43948206820238  -27.70015086949043    3.89475984965740
C          -0.03983421945752  -28.42164022279659    4.95421078730428
C          -0.63807888846488  -27.74489522187174    6.03406572920900
N          -1.10871088021428  -28.46575470591662    7.07397577591247
C          -1.66118947787969  -27.81992077266646    8.06338462706168
C          -1.77197319829447  -26.41603205171103    8.05878931612613
N          -1.32496071595618  -25.69501603914420    7.06612452582421
C          -0.74484224724729  -26.32375254459830    6.02701910624687
H          -1.50589932324077    1.34149431215718   -3.87686700927382
H          -0.05686229418973   -0.55353368865320   -4.59251555270743
H          -0.09973279091710   -2.66527098180694   -3.37490579825047
H          -4.65407373608991   -0.25254128156579    0.68357757790299
H          -4.55534262533596    1.95494803117266   -0.57801910160858
H          -2.69502362760083   -2.93938420535995    0.52770841705290
H          -2.00113393719280   -8.79710653455300    2.46965387478496
H           0.49256740724336  -11.20778646183133   -0.91125077027534
H           0.87071302672284  -17.14808029598999    0.82702514142789
H          -1.18716721534044  -17.58714003670790    5.18755484096120
H          -1.21758385224965  -23.60501959309350    6.71767277254617
H           0.73172046101581  -25.77225964800700    3.02199287689026
H           0.90101017530174  -28.20233674715421    3.05787591570651
H           0.02219387495033  -29.49705442727754    4.99623200455014
H          -2.03188699290062  -28.41386814999451    8.88784380325838
H          -2.23148199274429  -25.87618047884957    8.87556669019792
