84
 SCF done       -159.035193737451          0.000877005903
C          -5.28146847594228   -0.63256772851092    2.29248079601062
C          -5.79859249832347   -1.42688224245518    1.30410088706866
C          -4.99762499835572   -2.36070954967008    0.64211391718956
C          -3.65730006653288   -2.52376410616427    0.94669505160570
C          -3.10921838275955   -1.74103091293757    2.00624423701739
N          -1.84640235463092   -1.94579961366384    2.42194223732079
C          -1.39474837620027   -1.20479166117960    3.39802295738889
C          -2.18716508130798   -0.20840147323824    4.00177712489404
N          -3.42909798609665   -0.01352020325771    3.65334442399628
C          -3.93198444617454   -0.78209556774805    2.66384396485071
C          -2.86029006892736   -3.49372541598173    0.24138772864990
S          -3.62352372430494   -4.93668574786476   -0.36298015261833
C          -2.13866267187663   -5.58136461251329   -1.01303440883348
C          -1.11580569644357   -4.68617194568999   -0.77430117756172
C          -1.50935114086237   -3.50551514084795   -0.07460310270082
C          -0.42691583491935   -2.59866952044774    0.05665804655277
C           0.72268825153199   -3.08174673314018   -0.48566973346749
C           2.01493018992670   -2.39713788156631   -0.52427375905405
O           2.22670948935332   -1.30575859301984   -0.05419948228928
O           2.93519682357700   -3.13785958124741   -1.15624856570638
C           4.23157583610957   -2.57302401856801   -1.26201433493724
S           0.56477392394849   -4.67261851568090   -1.20216532326400
C          -2.09478839212571   -6.83503110202082   -1.67101933933063
C          -0.97248099336483   -7.52034076352444   -2.10025382654106
C          -1.30380706808236   -8.73063812222522   -2.71112791187287
C          -2.68886686440251   -8.96398081168029   -2.75315208025755
S          -3.58318663944509   -7.69873384201912   -2.03220681040346
C          -2.92153451837448  -10.20165702296926   -3.39853097708909
C          -1.68454289812765  -10.76052748828477   -3.75944719983098
C          -0.62617742431680   -9.85454384833963   -3.33711145977361
C           0.71781540695681  -10.02521234362895   -3.49668471058310
C           1.65924988948599   -9.07668949782277   -3.04496514329588
N           2.43560374133165   -8.31229648559002   -2.68705637056146
C           1.25919182122698  -11.16807850837853   -4.12141261052259
N           1.70382397459928  -12.09345586065864   -4.63270480892875
C          -1.81267988048802  -11.98444880969267   -4.41633763761946
C          -3.13563213684082  -12.36047982458536   -4.56520426098000
S          -4.24156455123739  -11.17684051086787   -3.87054308124902
C          -3.65760577068263  -13.51393938114431   -5.21931692775075
C          -5.00702461105999  -13.72291369950452   -5.35264992613892
C          -5.59624967226051  -14.78993627090981   -6.03031640544895
C          -4.76484900306011  -15.88951001622772   -6.54702996408769
C          -3.41498568765948  -15.89669669479194   -6.51692581492345
S          -2.45784111222931  -14.62480784179152   -5.87426075196290
C          -5.68337935137109  -16.85013595040386   -7.05026696478181
C          -6.98786210008670  -16.38209913416124   -6.88188670916712
C          -7.94682328642349  -17.29113481385515   -7.38193809330726
C          -7.36015613291801  -18.40063807140816   -7.90132628046383
S          -5.62979940323515  -18.38984365254180   -7.81274360382500
C          -6.94975799423233  -15.08181952416751   -6.26813561964449
C          -8.11041009854270  -14.29893890231544   -6.00114229938728
C          -8.11869532453957  -12.96493873848382   -5.79160493615365
C          -9.25066038149883  -12.14622725184732   -5.44840559072021
C         -10.57506922444765  -12.53129668669933   -5.55793634992927
C         -11.62168714904546  -11.67424359327606   -5.20600233486406
C         -11.37819184521240  -10.41361201520401   -4.72723188283349
C         -10.04873329971485   -9.97269107630188   -4.58515616175900
N          -9.80225426090121   -8.73646345285071   -4.09983349624149
C          -8.55365161041751   -8.37784631165805   -3.97121073066269
C          -7.49204921792346   -9.23331134229210   -4.32191963871254
N          -7.69964650913681  -10.43126185725756   -4.80183294793616
C          -8.97699584419286  -10.83440304917628   -4.94957118561771
H          -5.87459389604165    0.10594859952097    2.80740913064427
H          -6.83535217344927   -1.33213776313155    1.01805459213647
H          -5.43021052363264   -2.96329054332496   -0.14395278801153
H          -0.38019617057140   -1.39636823626714    3.72013490668702
H          -1.79656684190130    0.42287701814086    4.78847075668788
H          -0.48470517299802   -1.63554100239800    0.52518375846909
H           4.84846737898105   -3.32220453065494   -1.75099243910908
H           4.62380621308582   -2.33616974781691   -0.27077102168991
H           4.19748616414291   -1.65593608121535   -1.85427161640463
H           0.02619528133302   -7.14961905593057   -1.96195321525470
H          -0.99303738932245  -12.57796704369945   -4.77960080884904
H          -5.64939854704882  -12.99826457391653   -4.87327283782973
H          -2.83019944347112  -16.70984857961496   -6.91749656864803
H          -9.01089599208473  -17.13953261457301   -7.36094419783361
H          -7.83964371588957  -19.25103558914072   -8.34553805132539
H          -9.04246676622463  -14.85026812443316   -5.99354277893997
H          -7.20047920149673  -12.40487951600243   -5.86510915634015
H         -10.81364681655436  -13.51128530092416   -5.94263687925967
H         -12.63935281876782  -12.01897977328924   -5.31899806453447
H         -12.17428249776603   -9.74093665045936   -4.45076858951439
H          -8.36935181993840   -7.38659559086180   -3.57855005971851
H          -6.45958253826197   -8.93049036322626   -4.20357255825440
