97
 SCF done       -193.295880963731          0.000570501129
C           0.11737463907778    1.02892219018674   -2.93699560456202
C          -0.87142667824031    0.16520080392631   -3.41647125130552
C          -0.74163171954014   -0.36509503011518   -4.70109794164766
C           0.35749827115848   -0.03753192719043   -5.49516813891976
C           1.31976060291766    0.81524410487341   -5.00068760239225
C           1.20189318814559    1.35042283862551   -3.71990518324918
O          -1.66756491174801   -1.20667476908545   -5.22273583374931
C          -2.73195912486572   -1.57298208516307   -4.49131879086484
C          -3.62154863220700   -2.49823220260064   -5.25872300671130
C          -2.96302674894706   -1.12998916407593   -3.22380065585420
C          -2.02741714801090   -0.18516007532202   -2.57986128954398
O          -2.17848931458302    0.25304576474869   -1.45410621540365
C          -4.09188748665011   -1.55953475657745   -2.42289919043880
C          -4.77069061432947   -0.79376310649532   -1.50541746322903
C          -5.73967324800092   -1.53118993571659   -0.81236222275449
C          -5.77705097059301   -2.87768589642035   -1.19991571754533
S          -4.64382437123127   -3.23065122295966   -2.42389033672281
C          -6.76109221312164   -3.54849049703490   -0.42762927062403
C          -7.34751626361192   -2.62161256744696    0.44864684673980
C          -6.73208115454734   -1.31864577819468    0.22618427569773
C          -7.04204163499223   -0.15032406941130    0.85724679426928
C          -8.03321371344160   -0.08570658914906    1.85926201158152
N          -8.83852497731959   -0.03235404644311    2.67415671329900
C          -6.41976591199745    1.07703635304265    0.54347074282430
N          -5.94533902626234    2.09048343615364    0.29420553710334
C          -8.32010135816177   -3.19112820094825    1.26896888203024
C          -8.47304939577477   -4.54473805993134    1.02678455762563
S          -7.40203138980675   -5.11961532259288   -0.24534550765980
C          -9.33577906011351   -5.45357561651985    1.68515104010186
C          -9.43635998388698   -6.81756065123324    1.47447612690040
C         -10.36139826709318   -7.41202846158910    2.32889931040829
C         -10.98075494063704   -6.48882971713767    3.19754754191109
S         -10.41718777095359   -4.89085030219156    2.95348598799525
C         -11.87429220432980   -7.18456317711794    4.03664316165445
C         -11.81771456331987   -8.55793322985051    3.70733081663679
C         -10.88182294064698   -8.73757898575242    2.60601666766109
C         -10.58364627711093   -9.90244533383231    1.96192243516675
C         -11.20685349278096  -11.12555767212386    2.29233474549339
N         -11.73783700478288  -12.11099732564514    2.53930891754818
C          -9.66470822687234   -9.94661277700974    0.89218599896663
N          -8.92414490385881   -9.97215107404866    0.01716362093947
C         -12.62302105452516   -9.34949120148079    4.50470136514547
C         -13.32358326108158   -8.60668877320128    5.45725345502405
S         -12.96556345908752   -6.87919117139849    5.31526533032878
C         -14.20571861721161   -9.03785046935229    6.45490147301469
C         -14.41212948017052  -10.33674031243197    6.86680558747942
C         -15.32699403420277  -10.75977407452688    7.86039444905964
C         -15.28772768948910  -12.09790937542883    8.12976683983905
C         -14.32752699183318  -12.79783796521421    7.37190740373315
S         -13.50221830993707  -11.71666173990842    6.28422148720623
C         -13.97315383081198  -14.13941192707876    7.41129095567340
C         -14.52745343435397  -15.18761683673373    8.17021063800289
C         -13.90552766458329  -16.38953439902807    7.97459926316998
C         -12.82748237779251  -16.33909479355637    7.06418334234252
S         -12.64240140858026  -14.71819811578334    6.43892058125685
C         -11.98506799964555  -17.37490937636215    6.69810048207357
C         -10.91057683251286  -17.18477917445598    5.83725035725360
C         -10.01947059601120  -18.16154981953979    5.43761127442084
C          -8.87869318324401  -17.97687245274523    4.57944687285536
C          -8.38411569352266  -16.78695806690996    4.09505958200485
C          -7.25864482682815  -16.68510914594750    3.25439007899840
N          -6.35060305872701  -16.53327080701386    2.56686690890153
C          -8.88471961366494  -15.50307446187502    4.39048564352669
N          -9.20194749517992  -14.41779447450663    4.59714346398648
C          -8.28392703875829  -19.29169410502160    4.34337756935109
C          -9.01007274770707  -20.25640593847672    5.08312759001444
C         -10.11591796829572  -19.58681337573972    5.80215691301173
O         -10.92682727382024  -20.12292143399995    6.53300815452602
C          -8.68336956979211  -21.58952118512414    5.08361636852543
C          -7.58770394044566  -21.99373172324006    4.31223544189322
C          -6.87321339981083  -21.02471894256344    3.57154143017874
C          -7.20261453708522  -19.67403947732839    3.57368169741420
S          -5.55901890702947  -21.73827078282838    2.68524804760903
C          -5.98222514447866  -23.30760961942118    3.31621902596245
C          -7.05131490869255  -23.30053814450443    4.14639078224083
Br         -4.97104974250963  -24.80804041675127    2.81936390566811
H          -0.00467769332358    1.42612028858658   -1.94090221754273
H           0.43096209932746   -0.46223350144343   -6.48379809798768
H           2.17175605032500    1.06894104192657   -5.61280838747630
H           1.96316205095477    2.01669927987363   -3.34484421379915
H          -3.42047242398609   -2.37720344786722   -6.32046818270475
H          -4.66930837362854   -2.29114557000766   -5.05862761666022
H          -3.41734530242637   -3.53398607352636   -4.98943698869435
H          -4.56230447098371    0.24821137205437   -1.34965192964390
H          -8.89087605283870   -2.66629270643676    2.01400080426725
H          -8.84988194589218   -7.33712148370526    0.73801248833546
H         -12.72331313991487  -10.41163987184429    4.39004199249430
H         -14.75677460912803   -8.26967169504385    6.98197403403532
H         -15.98537786721917  -10.06262898971713    8.34813007829902
H         -15.90698282747569  -12.58754912891148    8.85951908139586
H         -15.36185984358999  -15.03641076607933    8.83158910485438
H         -14.18352581204236  -17.30629000521547    8.46337923669265
H         -12.16384485550118  -18.35579998324940    7.11379194711519
H         -10.76745753937496  -16.18136565872308    5.45407575503859
H          -9.25411440306629  -22.30011405581835    5.66073091279121
H          -6.62579872219113  -18.97554371551132    2.99115469513200
H          -7.44698728358493  -24.17853711436030    4.62350223293516
