84
 SCF done       -155.790102456299          0.000614176301
C          -5.58763143081302  -12.59899884511318    2.43696571483744
C          -5.96331633821765  -11.44431144737466    1.74642356861715
C          -5.94413893757303  -11.45453784321263    0.35009755686631
C          -5.56481553540373  -12.60319084979160   -0.34413891380340
C          -5.20128515277460  -13.73112895098024    0.35862684982381
C          -5.21011666408463  -13.73087001967022    1.75119060607419
O          -6.27970639090610  -10.36241637149030   -0.38372821541825
C          -6.59503630673857   -9.21470246553327    0.23765281620499
C          -6.84068058442982   -8.10650739235267   -0.73709813253575
C          -6.64553677777686   -9.08465560691919    1.58968134065191
C          -6.36794654271891  -10.23207919864439    2.47503653771190
O          -6.48592629686376  -10.18804008744987    3.68420977463156
C          -6.95132674983443   -7.82642603831268    2.23686283463594
C          -8.06135952502222   -6.92047426289663    1.95186900149920
N          -8.07595898774719   -5.84401544118554    2.68896868429132
C          -7.00158662701355   -5.95503448025259    3.51595718570078
C          -6.30686514998689   -7.23831268035775    3.29338911681874
C          -5.09787843242924   -7.28925869466111    4.08523675338496
S          -3.91177973937954   -8.42740055789391    4.06771073943842
C          -5.08211419310726   -6.03071123550384    4.77561004743494
C          -6.24395646750248   -5.22150997014520    4.39390595046245
N          -6.13857243999719   -3.95977244342467    4.90547329068520
C          -4.97837189113444   -3.91075383177152    5.48792969779060
C          -4.22703355619858   -5.16988485528011    5.44422606656871
C          -2.93748062015503   -5.41338822377030    5.96071184583704
C          -1.90564422061342   -4.51196895502638    5.92066069820192
C          -0.57451787529486   -4.71067023228412    6.36857265879024
C           0.30478475576918   -3.76064696605327    5.94455602205543
C          -0.28098114875613   -2.77305168080688    5.11964717783468
S          -2.01028629473649   -3.00537285267195    5.02076303448788
C           0.35072794283942   -1.86381064728606    4.28829129886053
C           1.73663272018805   -1.68949274671793    4.06909639609608
C           2.02744643002760   -0.96078591544756    2.95573778970775
C           0.88663003614014   -0.50775912327836    2.24392670893953
S          -0.57319575020416   -0.95037455942572    3.11943763894121
C           0.84853947166760   -0.00878315180216    0.96849091252920
C          -0.34108764493768    0.33680046031307    0.29134605668440
C          -1.53030896742506    0.98614496362760    0.85877431314053
N          -2.50439214486637    1.14811298055445    0.01676057312815
C          -2.08168123417613    0.57829951248584   -1.15223418217229
C          -0.69540324226948    0.11961813655849   -1.02783088966820
C          -0.29314753960457   -0.58887559691369   -2.20919000219444
S           1.20625773198825   -1.20061064356786   -2.52032775852629
C          -1.48447512709696   -0.62628094890159   -3.02591807854780
C          -2.55101273710131    0.17226251767544   -2.37284255234150
N          -3.68231083826530    0.17261853122128   -3.12620349337527
C          -3.41170839110521   -0.56599484798610   -4.16295271208572
C          -2.06749022750085   -1.15981504954461   -4.14672606886507
C          -1.62741504836792   -2.11444097614054   -5.13994642155660
C          -0.99580644761421   -3.27821416398612   -4.80613270793048
O          -0.60404480710300   -4.19081659305988   -5.70845643800298
C          -0.82422448591976   -3.97816198044891   -7.02898917082771
C          -0.38141352878273   -4.95280339830866   -7.92333065082705
C          -0.60732246306888   -4.78743850183959   -9.27212831726297
C          -1.27319367344142   -3.65939770987878   -9.74544806238875
C          -1.71069599002289   -2.69802765282400   -8.86360454240080
C          -1.49098273630677   -2.84221143839007   -7.49131770441287
C          -1.96826657041183   -1.82355259563326   -6.54321065080690
O          -2.58145262961776   -0.83199971814779   -6.89807623951292
C          -0.71333586527779   -3.72496036740386   -3.41676238091365
H          -5.60487307611843  -12.56503617045350    3.51558224895456
H          -5.56001037581045  -12.58166312373534   -1.42259040877020
H          -4.90460753369559  -14.61976190416642   -0.17757970338446
H          -4.92005646251496  -14.61993483642803    2.28945668734595
H          -6.22609765975654   -8.26314013819391   -1.62054818748146
H          -6.61289984350766   -7.14038418568568   -0.29743855215151
H          -7.88345621346211   -8.10973465570607   -1.05264358432353
H          -8.83829588652657   -7.09785038129977    1.22938882011027
H          -4.66258351959138   -3.02001972222583    6.00285142713270
H          -2.71925284103399   -6.41515180374214    6.30739492231938
H          -0.30884941961638   -5.56578416895935    6.96436536385968
H           1.35738388385878   -3.76775484593765    6.16369197847462
H           2.47454169127816   -2.13755995881008    4.71003933319132
H           3.02249430188284   -0.76004612883108    2.60016830360807
H           1.77060383393363    0.00485165479558    0.40197751166222
H          -1.60379086902996    1.36928794698488    1.86167875704563
H          -4.13710042675174   -0.71753147146552   -4.94104021968812
H           0.12957214195325   -5.82023897238930   -7.53632030385952
H          -0.26546089979951   -5.54060862372067   -9.96569407561094
H          -1.44381212340265   -3.54211739832622  -10.80442929199090
H          -2.22990755884365   -1.81263577751575   -9.19767770009034
H          -1.49451178544696   -3.40423544920683   -2.73213490688369
H           0.22952185721936   -3.28537057503457   -3.07435004511336
H          -0.61351133566551   -4.80708560444225   -3.39545134713397
