88
 SCF done       -191.516074989568          0.000434104634
C          -0.34417981274617   -1.25908866480597   -1.89931977167186
C          -0.46991739437397   -0.35915885855047   -2.92160407777822
C          -0.55189628714824    1.02511446219775   -2.69084831054865
C          -0.50813311831494    1.57334940721709   -1.42650694760038
C          -0.36461872466371    0.66475962731815   -0.34643744288361
C          -0.29286747511993   -0.75349095530598   -0.59069068284516
N          -0.17818087591255   -1.45235507007378    0.54025135186388
S          -0.16946392123800   -0.43062294770647    1.77812253510853
N          -0.30465348213688    0.94350481429164    0.95640206013320
C          -0.59408336337308    3.01178963435940   -1.18875407147989
C           0.12439179798927    3.61352704741172   -0.17351688152319
C           0.07963241464301    4.98703933126582    0.04724826204126
C          -0.67490401954709    5.82894620202783   -0.74888738886171
C          -1.46503192202389    5.24250293835790   -1.77746373540635
C          -1.43112242946711    3.83783130064511   -1.98919190141316
N          -2.22736421992971    3.28496662326491   -2.92578580461043
C          -3.01319455953197    4.04720802136082   -3.63837181673819
C          -3.04129788058247    5.45617659138481   -3.43193254001305
N          -2.28631499714087    6.01140644844272   -2.52087678496090
C          -3.93720814898006    6.35032611061575   -4.22157399375811
C          -3.88331067380226    3.38386233826455   -4.65279376872685
C          -0.70326301667691    7.26331948108996   -0.51965047225034
C          -0.89376084863099    8.19192929923510   -1.52252619822413
C          -1.04447464251243    9.56595861488169   -1.28515866651513
C          -1.01749044942900   10.12143076164680   -0.02319040634195
C          -0.70869351720333    9.22134456381415    1.02783369514676
C          -0.55685476466539    7.80702235815366    0.78537996665291
N          -0.30258177113746    7.24576588556136    1.95200170713136
O          -0.29192671190644    8.22394466851729    2.84919425106637
N          -0.53705572889123    9.42210614965865    2.31978299767416
C          -1.31073079642795   11.51575628090798    0.26526174941298
C          -0.53649022829618   12.09824562447352    1.37049364770090
C          -1.15288343117795   12.74849266108168    2.44118812193019
C          -0.42439187478480   13.22095048499616    3.52483664167242
C           0.95527146204726   13.04319916153345    3.56383075388994
C           1.59308428605607   12.39212812870836    2.51200696331924
C           0.84723497243962   11.92706941660265    1.43799860707382
F           1.48286913756065   11.31722862915131    0.43174490799605
F           2.91608986654673   12.22157436274796    2.53759372261139
F           1.66113537999829   13.49679101011002    4.59884820257415
F          -1.04340596071206   13.84529351028989    4.52876184338866
F          -2.47826523191314   12.91782407299070    2.43985536209318
C          -2.29589529063318   12.20113500421773   -0.39005237375609
C          -3.24474807245836   11.47020186498103   -1.25800704007111
C          -3.93984956110079   10.34660461331059   -0.80301525466554
C          -4.81783075851679    9.64729876563430   -1.62186642062380
C          -5.03739569192498   10.07636459124000   -2.92823219920971
C          -4.37784366709430   11.20736112159523   -3.39877152266363
C          -3.49852070124649   11.88924197294294   -2.56550861222073
F          -2.85139900140234   12.95183750956052   -3.05478711207297
F          -4.58089674627598   11.62555933604110   -4.64935153834101
F          -5.87154841875361    9.40551821660662   -3.72365879505351
F          -5.45557642168641    8.57059193056809   -1.16265147559325
F          -3.76944014584599    9.92334251440876    0.45061951661427
C          -2.49638887583547   13.63195522826173   -0.31046932213930
C          -3.74204847201636   14.19286977346130   -0.40529257142407
C          -4.01067754563587   15.56357714295208   -0.36749709834295
C          -2.92098447952629   16.54059683261365   -0.22406618010626
C          -1.61651199457871   16.21269544423915   -0.12107122953514
S          -1.03319079240118   14.60038831060035   -0.14813250812131
C          -3.55855679124487   17.80734994254308   -0.22343437143293
C          -4.94295459374379   17.64564178499551   -0.35698908040233
C          -5.60630353298327   18.89509350961552   -0.38249141245553
C          -4.73767917686113   19.93238385842864   -0.26626775404996
S          -3.08098957061093   19.45292154500161   -0.12261787748161
C          -5.23503897320849   16.23958147517960   -0.44041765736738
C          -6.51371713240631   15.60319807667314   -0.57539680992819
C          -7.70582139651290   16.19962366069704   -0.54158609935800
H          -0.28260418759654   -2.32226042315838   -2.06519950273190
H          -0.50615869271258   -0.71225172836611   -3.94159983315435
H          -0.64360966215438    1.68403026858035   -3.53870738763803
H           0.74722972842333    3.00300519449698    0.46017320862182
H           0.66470631476455    5.40971787602625    0.84844795971005
H          -3.77049156377815    6.21694303343531   -5.28892104114861
H          -3.74348526060586    7.38437829315953   -3.95177369025020
H          -4.98071797130503    6.11974934098330   -4.01270938682275
H          -3.72163326939652    2.31036878394213   -4.61749806641371
H          -3.65194949893204    3.75189453368055   -5.65145414856035
H          -4.93138869112030    3.59798754326776   -4.45048727035199
H          -0.94622460588770    7.84717047132957   -2.54151119806632
H          -1.17948661991824   10.21392026823909   -2.13825726202029
H          -4.57897779341152   13.51142007634188   -0.48373716977350
H          -0.83564894443976   16.94924229978992   -0.01536304121457
H          -6.66502037247303   19.04145708463151   -0.48819972514125
H          -4.96716004892811   20.98037258034039   -0.25579256769201
H          -6.47861422090675   14.52921397262720   -0.70796107182864
H          -7.81914706856606   17.25763416745421   -0.39593176167125
H          -8.61459680342623   15.63344280869786   -0.64954993033654
