61
 SCF done       -111.953277648433          0.000768147971
C          -0.03132713469235   -2.53501114866561    1.27164794387805
C          -0.02259636965644   -1.67419015012876    0.00506535106528
C          -0.01611484681406   -2.55395175650921   -1.24761627747795
C           1.13916456098555   -0.70759528277943    0.00899713541424
C           2.52780372875582   -0.79902229184126    0.01751357719405
C           3.13949874799144    0.43976514511540    0.02146871694130
C           4.54227329822365    0.73462199723846    0.03102216615852
C           5.03659479721123    2.04816472488232   -0.02079208871594
N           6.31471668747270    2.33550260613355   -0.01047415323749
C           7.18059742490104    1.31733412703983    0.05217176012852
C           8.59872832501059    1.64817652025492    0.06440924194003
C           9.01387829839130    2.96271097016767   -0.01170633860458
C          10.36856086523470    3.32864064384996   -0.00373134944241
C          11.36596458098866    2.39415296348404    0.08151129587721
C          10.99442835655585    1.04265549958058    0.16222348180735
N          11.80932295945561   -0.01035548501331    0.25254769672376
S          10.91289533356765   -1.34212410532732    0.32029056048637
N           9.46106721292741   -0.66566411255606    0.23979951326678
C           9.60470972750631    0.65384168487741    0.15437355729562
N           6.82191811823399    0.03690074480578    0.10430416485169
C           5.54310291159764   -0.24938263448922    0.09509176064165
S           1.96543585272396    1.74622719055182    0.01456684856890
C           0.68617323056817    0.60774922449230    0.00823126544528
C          -0.73129778067486    0.61349939215277    0.00051225519283
S          -2.00600785243066    1.75870655727749   -0.00382890186427
C          -3.16203863483358    0.45573776783563   -0.01720589987184
C          -4.55860266853514    0.77114917561146   -0.02557889964485
N          -4.88856976455552    2.06616188260489    0.00155626187432
C          -6.16562514597826    2.36752972065066   -0.00591293364242
C          -7.17406807241533    1.39734613568909   -0.05903863104690
C          -8.58787686660420    1.74405192633356   -0.09044893805956
C          -9.04275331815282    2.90503815977371   -0.68113750544997
C         -10.40246695681389    3.25783408781536   -0.71372965080011
C         -11.36910465903723    2.46727991007948   -0.15470330221874
C         -10.95986270652871    1.27255959047701    0.45800131641429
N         -11.73350903006754    0.36720425135805    1.06008542900362
S         -10.80525799396910   -0.81996589953346    1.61102722824151
N          -9.38108797405819   -0.26005789019237    1.11909259792572
C          -9.56849972093186    0.90010828509762    0.48912579047872
C          -6.71178904390691    0.07444753613919   -0.07322786509022
N          -5.43612365125048   -0.23748461335627   -0.05353961947633
C          -2.57059429370027   -0.79318619284522   -0.01709391236726
C          -1.18410082386268   -0.70636972642677   -0.00562467674771
H           0.85065531363691   -3.17031167778633    1.29902179620191
H          -0.91840308778446   -3.16300845947479    1.28895226602094
H          -0.03415389922234   -1.90304823205256    2.15678460134140
H           0.86537776942739   -3.19055922657464   -1.25403339320576
H          -0.00730113519704   -1.93615734994144   -2.14264208889109
H          -0.90345514483186   -3.18160351359313   -1.26599635696992
H           3.07644218118458   -1.72311905369733    0.01753298270310
H           4.35774512440027    2.89215508478732   -0.07325881847581
H           8.25444567698027    3.72591294592344   -0.07981148055437
H          10.62186606315193    4.37644777835518   -0.06665156487568
H          12.41032163530678    2.66157571690641    0.08880140704850
H           5.30098598278465   -1.30332937289160    0.14249480750261
H          -6.39793748871478    3.42362105979142    0.05605597448458
H          -8.33250287399838    3.56433493479157   -1.15732763054851
H         -10.68140737510885    4.18195484301760   -1.19767054784375
H         -12.41405468613438    2.72956956079398   -0.17292281958816
H          -7.40417485404974   -0.75562168122705   -0.10676025814793
H          -3.15383891066619   -1.69510048882518   -0.02409484925698
