93
 SCF done       -182.130751935400          0.000943888036
C          -0.13313064450104   -0.83903173743483    3.66813792592467
C           0.93061415228993   -0.01315854236982    3.41752448738880
C           0.75774323179358    1.28845337895794    2.92780541236810
C          -0.48724040853564    1.83193809140667    2.66276216232139
C          -1.61019736903778    0.99651220158822    2.91346257674638
C          -1.42022990649275   -0.33929362630436    3.41733781444919
N          -2.58048434159320   -0.97549222135146    3.59328560356609
S          -3.77823868470253    0.00318957076804    3.16991925305436
N          -2.90049617231547    1.27948912907621    2.74293004614699
C          -0.65094581193102    3.16805248014589    2.16216845170476
C          -1.82786573519597    3.81542007620772    1.85140723564667
C          -1.60960522958553    5.11641316326627    1.39209008766476
C          -0.24855087261655    5.46094121186767    1.35265894810258
S           0.75652386600380    4.18719182669403    1.87821944553180
C          -0.13145817076891    6.79309516928540    0.88097078167331
C          -1.41985590901813    7.29170613112168    0.62454156286783
C          -2.39107932496725    6.24836282034883    0.92610079308319
C          -3.74488298102530    6.31775045375175    0.77842796484347
C          -4.38195236191164    7.47385050356576    0.27920227500879
N          -4.90081752555895    8.40695058433017   -0.13873255148051
C          -4.59794970037046    5.23935601639372    1.09609674197035
N          -5.30312325085118    4.37127831539034    1.34853622119086
C          -1.41240352532590    8.60775972700209    0.16692381733523
C          -0.12804721332696    9.11301746330687    0.06420057823466
S           1.09032679819784    7.93901039000928    0.54577457155284
C           0.25834018247179   10.40498281491096   -0.36749278898230
C           1.54233501131276   10.88139048796322   -0.56589816741539
C           1.54616422905678   12.20352467351074   -1.00672094168922
C           0.24789146406179   12.74212480407181   -1.13452125098725
S          -0.96966914005158   11.61530348553620   -0.72258856106144
C           0.35031065468806   14.07217239839901   -1.58524447045148
C           1.71941232951601   14.38362799845568   -1.76065655918674
C           2.50970182494128   13.21466970374574   -1.39362836096647
C           3.87010894265544   13.10165281025650   -1.41036872284935
C           4.70566275615744   14.16403410231645   -1.81133961628894
N           5.38670004371587   15.02662890257997   -2.13915442602175
C           4.52832517005692   11.91519385142706   -1.02586417153729
N           5.06638876715345   10.95190100857189   -0.71385506747027
C           1.92469872856352   15.67076066425020   -2.22022534613768
C           0.72485264846870   16.37220769963859   -2.39326058468799
S          -0.67355400571714   15.38352078305994   -1.96980328674732
C           0.61647980115614   17.68754358403676   -2.85142522677169
C          -0.52986575055977   18.43899503157317   -2.98243156746922
C          -0.60413718561053   19.76507904071892   -3.47006986135013
C          -1.86297958770266   20.29099499561865   -3.47339855747032
C          -2.84539323456472   19.40900909258417   -2.97846955464962
S          -2.12875500795570   17.88185960245366   -2.53168939753390
C          -4.20387566216959   19.63362458313261   -2.80745256441490
C          -4.95042727387832   20.78210518465644   -3.13717729009183
C          -6.27420451600305   20.68459300175797   -2.81399830441502
C          -6.63122684527977   19.46040816771392   -2.20728352212657
S          -5.22916286149055   18.42147589415010   -2.07847902649275
C          -7.88161882003299   19.09427867579709   -1.74486637273185
C          -8.12171949049276   17.87720425687032   -1.11491219085486
C          -9.33952276870902   17.46894276420947   -0.61013732790662
C          -9.61274291023978   16.23277419304535    0.07732754310994
C          -8.71334604882531   15.24071742182380    0.39662047941909
C          -9.05220755655675   14.06538507802315    1.09577682607279
N          -9.25648413869643   13.08974473083441    1.66722748970000
C          -7.33637592271976   15.24614740241974    0.10008950836394
N          -6.20613177864665   15.16879988760966   -0.09558578158127
C         -11.03596192594929   16.21381867340964    0.41092486332815
C         -11.62388740418413   17.42711519249861   -0.04724650362414
C         -10.58896627156678   18.25465431622785   -0.69492340786392
O         -10.74798045130345   19.35371629154268   -1.19229630985640
C         -12.94914574698482   17.69856876321543    0.12730357966828
C         -13.76736226391638   16.74880113358801    0.78083520656036
C         -13.18858569806456   15.53106057160644    1.23832883017186
C         -11.81008209762763   15.27873592023898    1.04279521381874
C         -14.01253541095743   14.58957616977732    1.88683322106703
C         -15.34505875317938   14.83757694868952    2.07637076397591
C         -15.91397878767209   16.03759895067775    1.62596137397278
C         -15.14156157233842   16.97288362253043    0.99174044065825
H          -0.01193767801670   -1.84105295024237    4.04485181885101
H           1.93512067027413   -0.36453674318621    3.59883035092758
H           1.63559808026981    1.89321366112172    2.74967410118369
H          -2.78585459296275    3.34208440356234    1.96426975708386
H          -2.28517627803827    9.18272977128046   -0.08600003895345
H           2.41807383631795   10.28007406002323   -0.39878459815856
H           2.88296086483436   16.11235355609240   -2.42614372212876
H           1.54644356764137   18.16740961119272   -3.12893748532410
H           0.27450785795673   20.28933258294591   -3.80204647186589
H          -2.10297892824446   21.28480413552861   -3.80535747245706
H          -4.50172679154042   21.64235228189831   -3.60064111684999
H          -7.00279509022274   21.45666731656152   -2.98607661446114
H          -8.69649963835645   19.79321067562162   -1.86697577329732
H          -7.27473010605755   17.20973113395250   -1.01138607409531
H         -13.37019047769508   18.62724101889336   -0.22881433308486
H         -11.40444547666242   14.34595667848181    1.40055150324347
H         -13.56938158330179   13.66688856790418    2.23217168727595
H         -15.96786525686717   14.10966982405119    2.57477708651379
H         -16.96704659075466   16.21772503448731    1.78366909169668
H         -15.57430496286532   17.89916747234628    0.64235584676366
