78
 SCF done       -155.816317242865          0.000522932956
C          -0.24268420162261   -0.36831974333354   -5.38039596381603
C           0.42786843505198    0.76299953808848   -5.76424264311837
C           0.26375431863926    1.98387290121205   -5.09690456763108
C          -0.58018238725142    2.13914323623064   -4.01030866758000
C          -1.28930756322076    0.97993482310295   -3.58872486855893
C          -1.11159518466058   -0.26998472524777   -4.28294298903481
N          -1.85198802176538   -1.24555559361742   -3.75269947328336
S          -2.68118169898786   -0.65174799121662   -2.51422007613893
N          -2.15140646603240    0.86543306957853   -2.58060080890065
C          -0.74415676225131    3.39556487489914   -3.33875774293137
C          -1.56227806768817    3.68236899712223   -2.26947944328678
C          -1.47744743913914    5.02020856408466   -1.87564759275402
C          -0.57197939011144    5.76812515283564   -2.66249848446596
S           0.16151354254774    4.81545412132496   -3.87523107168129
C          -0.56080104305863    7.09940830726126   -2.20211611860185
C          -1.46171649161212    7.19810699355168   -1.12058276513562
C          -2.06427393945893    5.88836959283599   -0.88587777271750
C          -2.99525916410798    5.57407026208903    0.06617056662288
C          -3.51320788696499    6.51451048695597    0.97920491947816
N          -3.95879054454918    7.25294397838092    1.73671833722226
C          -3.52621626721337    4.27793850896982    0.21620336930255
N          -3.98276013567844    3.23576979189364    0.36751609998123
C          -1.54955971405040    8.46701775241463   -0.58508851650301
C          -0.72446452391260    9.38784807230432   -1.24070602550449
S           0.18244748448152    8.60687033392413   -2.54406797780915
C          -0.55508041014236   10.75905950197710   -1.01749367406053
C          -1.24000242002575   11.53438887210830   -0.10241913481737
C          -1.09116612561310   12.92248286766704    0.12445888590958
C          -1.92568363458912   13.43844534201222    1.08082965988607
C          -2.77640992593680   12.48263812307487    1.66009123706688
S          -2.48195342032175   10.91158050694701    0.95710020245376
C          -3.75989689901333   12.55240464952812    2.63867745626339
C          -4.26805622013309   13.61126452161416    3.41184367065763
C          -5.25733619976306   13.22892216317629    4.27738225449301
C          -5.57681651185710   11.85162236922531    4.23141879071808
S          -4.57385804820473   11.06023035923989    3.04080735187705
C          -6.51312260972206   11.16678447988100    4.97764696363925
C          -6.78367262092292    9.79641013569696    4.90105211016148
C          -7.72721092588242    9.09677677574174    5.66688802727926
C          -7.75355955868131    7.74743434037932    5.36538315037161
C          -6.82734192372457    7.39203955845171    4.35716519902506
S          -5.93026656154000    8.72246680649388    3.78920181096173
C          -6.92465762005747    6.00641136282869    4.12400576591931
C          -7.90792453936110    5.46865060355153    4.97949065624430
C          -8.46140883111352    6.53955766835473    5.78205117337470
C          -9.44103002870187    6.44994717199250    6.72949774865031
C         -10.06769656780337    5.23108348423771    7.06164107832457
N         -10.59249946625416    4.25154338247636    7.34587617540929
C          -9.89505787513383    7.57801016452863    7.44208574898963
N         -10.26761991865835    8.49410802549702    8.02392027290958
C          -8.06633653289641    4.09003818936764    4.81648492173308
C          -7.22331327483663    3.57782955731338    3.85226917017059
S          -6.20743179725077    4.82300052028393    3.12589183562199
C          -7.10461096421849    2.21550908818351    3.41528691418535
C          -6.24265587128157    1.83908126293700    2.39934476598689
C          -6.11663183326398    0.51388472575566    1.96151752540085
C          -6.84436094119030   -0.50491486011677    2.51741595371115
C          -7.73345993607655   -0.18101495227019    3.55429957373935
C          -7.87333269913492    1.17815845741356    4.01213551487104
N          -8.76084316187325    1.27666366545966    4.99975882200005
S          -9.35595249256913   -0.18292378208514    5.31760162419416
N          -8.52613586769640   -1.01809984685311    4.22701395714615
H          -0.12433067353688   -1.31172695039736   -5.88693445668714
H           1.10442412981670    0.72403623892146   -6.60473705838804
H           0.81935164276817    2.84228153952873   -5.44691483458242
H          -2.18632448856119    2.93615895236878   -1.81303103183833
H          -2.17628579893792    8.71162179911833    0.24932730979351
H           0.17303158524606   11.26682764672448   -1.63633535806368
H          -0.37323969033647   13.50509436472919   -0.42595488768295
H          -1.94436780601090   14.47340688875313    1.37306962251738
H          -3.90079805866117   14.61777004823091    3.31703089862594
H          -5.76475342322665   13.89954383034634    4.94858967700965
H          -7.09312848637846   11.73427206398849    5.69355214502616
H          -8.34562146216904    9.58203709505016    6.40047026023833
H          -8.75310452553663    3.46851225634608    5.36146311840398
H          -5.63712610892750    2.59201608072639    1.91563641243161
H          -5.42124846489373    0.30866616161121    1.16219479191967
H          -6.75611102234033   -1.52763458387403    2.18955050701848
