78
 SCF done       -163.844875456406          0.000400036174
C          -0.82877708443612   -0.64391296805914    2.94091746705734
C          -0.19055863769702    0.45649145263479    3.44894746486843
C          -0.35207990789932    1.73040096986527    2.88757085495925
C          -1.15967998862974    1.97047048484094    1.78959568223045
C          -1.83572029109598    0.84612436798210    1.24173315731171
C          -1.66192193432328   -0.45842819008997    1.82699566860164
N          -2.36890701093633   -1.39092554270206    1.18473322753597
S          -3.16461770342937   -0.69892569821182   -0.02303285756685
N          -2.66179269418205    0.81141347961144    0.19740751874633
C          -1.31103326881296    3.28064683124317    1.22043573256533
C          -2.07187047353864    3.64727788599272    0.13087485055338
C          -1.97018431739634    5.01267038438744   -0.14852905646739
C          -1.12288378538076    5.69027686364660    0.74222696382987
S          -0.45558138975296    4.65206992483428    1.91820270515009
C          -1.07304790444645    7.05864343684403    0.36899129854250
C          -1.88736614554114    7.24429169086480   -0.75927726430447
C          -2.48464484452239    5.96482985155196   -1.11779839350882
C          -3.34609873691237    5.71924005040663   -2.14610303348530
C          -3.77385452750616    6.74061893315880   -3.02042501293112
N          -4.12040915207691    7.57354376976138   -3.72839464548869
C          -3.87052808945824    4.43528483918608   -2.40670440553593
N          -4.30640340143662    3.39920026632087   -2.63255135849914
C          -1.88932036839962    8.56194709105533   -1.21694834967112
C          -1.08518075560342    9.37884136377850   -0.44404079210863
S          -0.31673782062439    8.50425299327279    0.87390567732075
C          -0.82652508205235   10.76112171262369   -0.62409378217009
C          -0.04698265153811   11.58449384458822    0.16683048291026
C           0.00610242516245   12.88694881979221   -0.33017483567607
C          -0.73792265660776   13.05338580671343   -1.51000381796362
S          -1.51040281790536   11.61201299279239   -2.00302396977026
C          -0.60120306274372   14.39577200678170   -1.94571722417683
C           0.22689533099179   15.07885786362240   -1.03971352466952
C           0.63087744934235   14.15578934180671    0.00931325181029
C           1.42771891431402   14.42364356110778    1.08326876397023
C           1.97890002834988   15.70275097249266    1.30753788139309
N           2.42846887214323   16.74137532607562    1.49194513691022
C           1.75156152172396   13.43950272361853    2.04073962038029
N           2.01541796570604   12.64026888487514    2.81955397182539
C           0.44010741935137   16.41066819427630   -1.39579655356882
C          -0.21606618866363   16.74396091834615   -2.56614895545832
S          -1.11908595076022   15.39063402014201   -3.23399015031673
C          -0.20777784707795   17.99278969086613   -3.23707328050525
C          -0.83960637941266   18.32012661677462   -4.42245308878075
C          -0.59239000442276   19.64061533575106   -4.79782393531472
C           0.23224648415957   20.32206886072735   -3.88887801971637
S           0.70366962423500   19.34180415914915   -2.57235572338091
C           0.43032311853201   21.64517983046938   -4.36230955421865
C          -0.26849797348790   21.79919229274984   -5.56994460717642
C          -0.93537685241741   20.54748483494460   -5.88516945392335
C          -1.71387097792987   20.27199015760711   -6.97040839942488
C          -1.98361535768417   21.22714812697008   -7.97361621706474
N          -2.21370356117287   21.98967167798613   -8.79829028026553
C          -2.30295191383658   19.00455171683491   -7.16354992365050
N          -2.77977287939855   17.97339065672372   -7.32007476199262
C          -0.12584953438361   23.07542385287329   -6.12097322378445
C           0.67219705908384   23.89056280660245   -5.34690815617821
S           1.25743224647768   23.06441813197692   -3.90667906134009
C           1.04545200451898   25.25485531313975   -5.59743425682027
C           1.85539829702848   25.97011408568245   -4.73268953518694
C           2.23081138934217   27.29985615540577   -4.96690533183006
C           1.81559678345420   27.98337287349576   -6.07899417117998
C           0.99108490007541   27.30640362839258   -6.99068903349186
C           0.59829236651782   25.93998142391833   -6.76016117377679
N          -0.18115260532712   25.47991070656480   -7.73739066568048
S          -0.39582606503746   26.64137192009217   -8.82713626606754
N           0.48136347772583   27.78637970815890   -8.12723480789606
H          -0.71121741964233   -1.62782314230198    3.36369494502867
H           0.45825948436363    0.35114174624664    4.30529767439994
H           0.17871798696772    2.56042623984318    3.33193399215705
H          -2.66086631401586    2.93599684276708   -0.41843548651727
H          -2.43961481707022    8.92345213019278   -2.06707060921365
H           0.45181097737491   11.23763614774273    1.05402649261941
H           1.04243690537545   17.11161592264821   -0.84615834947624
H          -1.44208031256372   17.62011650973656   -4.97314354639093
H          -0.56921439128223   23.41651988133832   -7.03839632313038
H           2.21526144805473   25.48313481208725   -3.83742519387633
H           2.86586561369512   27.78914504735270   -4.24393930422235
H           2.09870375661824   29.00520177649022   -6.26960075796402
