80
 SCF done       -160.096940760170          0.000929641000
C          -3.47620329614385   -0.83001268632009   -2.26612245464219
C          -3.58771784307760    0.28133381745723   -3.05911435205144
C          -3.26889994825782    1.56211156832101   -2.58794171341649
C          -2.82059380849309    1.79863073437825   -1.30006036832308
C          -2.69799532429514    0.66300353146041   -0.45320544069229
C          -3.02966766933825   -0.64843812561813   -0.94817408967702
N          -2.85583902724520   -1.59084292946228   -0.01890218648566
S          -2.33298054379493   -0.89876044011248    1.33015516146596
N          -2.29665749936749    0.62351575397844    0.81610133329494
C          -2.48334599317798    3.11498866772182   -0.83475763578987
C          -1.98090278160471    3.47357453441843    0.39769995941235
C          -1.74505339636842    4.84780819410609    0.49232255835017
C          -2.07960936523744    5.54062456789425   -0.68333251261422
S          -2.67907957837756    4.50544002180930   -1.89795774973358
C          -1.78539700356230    6.91487855747080   -0.49788423457808
C          -1.25641071442131    7.09016729739553    0.79098115348597
C          -1.22760093430317    5.79612938237596    1.46112174986508
C          -0.81055310804543    5.53901148673044    2.73469472869063
C          -0.32873087748075    6.55679505547271    3.58372399252809
N           0.06206863607859    7.38371143986478    4.27610979019024
C          -0.83838973184955    4.24492775264965    3.29627990271540
N          -0.85587176464931    3.20199713118110    3.77229473300231
C          -0.91064158683273    8.41250121528289    1.06239437025372
C          -1.18066812951819    9.25195985238157   -0.00459022024953
S          -1.87653952784783    8.37999540289128   -1.36892703718647
C          -0.94563487242136   10.65408831609444   -0.09324809594806
C          -1.38069783088082   11.41504256641037   -1.15128415441913
C          -1.15967060756276   12.78246878887437   -1.29604646069200
C          -0.39391230177214   13.53464615961304   -0.29836413692128
C           0.11403045191569   12.99536870571628    0.83072700868108
S          -0.04653272719597   11.34110987570642    1.25676321375742
C          -0.35801701453065   14.86977024755166   -0.78546151763653
C          -1.06485937214740   14.96261685448625   -1.98696449366999
C          -1.02658326974918   16.27571698021100   -2.50943915624160
C          -0.32160286674730   17.11780455847342   -1.70925547983405
S           0.32862886660333   16.36529081139076   -0.29437289351294
C          -1.58960899457577   13.65890125849077   -2.31443947942046
C          -2.42166350393092   13.27796661932569   -3.38845947239932
C          -3.02420125592181   14.11260917188303   -4.27852665153861
C          -3.91752747913708   13.67913139672079   -5.28540726395621
C          -4.29456875009586   12.38720607542157   -5.63033071653673
C          -5.25315442777856   12.36822498257525   -6.63664299779292
C          -5.62098680948251   13.65090172477040   -7.07806038893561
S          -4.76612437115837   14.88075675815483   -6.25287050717697
C          -6.62328702629241   13.51422007956237   -8.06852883340405
C          -6.88703140911391   12.14531206100686   -8.25847708087695
C          -6.03418935090101   11.37999320832605   -7.37336307743620
C          -5.97225807348249   10.02269446726293   -7.23810357350333
C          -6.77409491270943    9.14642019267992   -7.99864408652009
N          -7.41706245239777    8.41698151426366   -8.60685744816964
C          -5.10046498813551    9.40246068713491   -6.32017205051432
N          -4.39345972921536    8.89665633686842   -5.57128205532692
C          -7.89025574122609   11.91107098280711   -9.20326575043814
C          -8.39577732574859   13.07842318602817   -9.73067969781155
S          -7.60634301226194   14.50280012730578   -9.05079980890780
C          -9.44350726832153   13.22847639456295  -10.70005289537133
C          -9.88723003241962   14.46820908017778  -11.12678573606308
C         -10.91786420193719   14.62632913547407  -12.06298875874602
C         -11.55912265407789   13.55290890090139  -12.62252664879733
C         -11.14845796465904   12.27042150784513  -12.22793233478653
C         -10.09039956319303   12.09541340660111  -11.26626204893450
N          -9.85099398562579   10.80778284595996  -11.02602362080172
S         -10.84903349493182    9.91422173203933  -11.91412327616581
N         -11.63763625787018   11.10225789735660  -12.64970236189156
H          -3.71659780276263   -1.81928144587813   -2.61853884137613
H          -3.92824395482696    0.17945712960274   -4.07849220644985
H          -3.37521915704478    2.40012451696403   -3.26206895058589
H          -1.79944974146084    2.75117250439047    1.17217763371267
H          -0.48671319871857    8.76104935119731    1.98696488392849
H          -1.93487740953360   10.89455510955883   -1.92149084106948
H           0.65894869929583   13.57517469259873    1.55881904219617
H          -1.47621395011417   16.59891814365102   -3.43001763472802
H          -0.13343067269117   18.16245945175232   -1.86293661410080
H          -2.62661823735308   12.21950760732748   -3.46810184424318
H          -2.87162249104067   15.17819684735057   -4.20654677213036
H          -3.88591566227114   11.51043596895435   -5.16397369336515
H          -8.25418502515911   10.94552999242373   -9.50289853995618
H          -9.42100078047796   15.35380138091739  -10.71861525052855
H         -11.20809993259066   15.62784175790403  -12.34309861321305
H         -12.35368328553993   13.66331961048387  -13.34164640666176
