132
 SCF done       -233.399252000890          0.000952082127
C           1.26755030322805    0.10997387692033    0.47749755320782
C           0.33714038490551   -0.69771460133629   -0.07668145569484
C           0.64019542663873   -1.97201492418863   -0.81408141881769
O           0.61084475796774   -2.08709406109461   -2.00782846884073
O           0.90895980350174   -2.95970191679874    0.04175495357757
C           1.22089830795347   -4.21854686596087   -0.54052623358910
C          -1.02886733105870   -0.36982436187526   -0.02774439192690
N          -2.14796047678640   -0.11948814647435    0.02348353793380
C           2.67784529132273   -0.08387834990355    0.48673371028608
C           3.58906951798295    0.78291540012957    1.03018141256991
C           4.93238229391092    0.36438647909454    0.89707776240375
C           6.10045318113671    1.04230290347323    1.30792818505737
C           6.02325743786488    2.26910142523518    2.07212272188294
C           5.18080466533716    2.56481123891675    3.10780043745551
C           5.37608414703384    3.85672911144717    3.63408939836758
C           6.35821325333978    4.55584043314028    3.00227231090201
S           7.07958037574357    3.61386252271760    1.73867858886818
C           6.83317940414256    5.93705939910809    3.27534594078021
C           7.30894145999212    0.46029382822210    0.94636234320536
C           7.40667808856666   -0.76431139640231    0.23752124313119
C           6.24160641249825   -1.45974321878261   -0.14288159275329
C           5.03132375022098   -0.86571818919639    0.20110476180101
S           3.45873139874159   -1.48254572503290   -0.21923460947027
C           6.26949219698488   -2.71343436855570   -0.86830171898619
C           5.43794502971169   -3.78721209356540   -0.71150614346237
C           5.69451562353675   -4.83380793813357   -1.61931906976017
C           6.71164222600147   -4.56624090653560   -2.48206529844066
S           7.38786933201400   -2.99981717253774   -2.17500932781215
C           7.26044721156498   -5.42315912829497   -3.56523685393840
C           8.75320785570518   -1.15007981659450    0.04162506049095
C           9.65844728495160   -0.27005158998132    0.56138175482748
S           8.88562743983131    1.08988467051927    1.33908658473226
C          11.08115012363116   -0.36948110244754    0.50230913523955
C          11.81099243576560   -1.24600077671328   -0.24684302341025
C          13.21064682774194   -1.08806175084080   -0.10757206979723
C          14.23143182079728   -1.84435309372240   -0.71819050221328
C          13.96066053967109   -2.88243275134166   -1.69141968310390
C          14.60120945075334   -4.07958560463113   -1.84809206179137
C          14.11819086269804   -4.83653170593272   -2.93399094679070
C          13.11929577129351   -4.22199659154457   -3.62316322891128
S          12.74300647562280   -2.68090594021101   -2.92491656704117
C          12.38270599351839   -4.70284266665411   -4.82128515652195
C          15.53463100392554   -1.52932223315125   -0.34739704405663
C          15.85890744281636   -0.50913747540542    0.58064460321747
C          14.83848810874906    0.25404179503860    1.18367785312446
C          13.53530610768697   -0.05689108893316    0.80813038996882
S          12.09801168308979    0.70667014332188    1.43164059893144
C          15.10651672422238    1.29505085708817    2.15450750612178
C          14.46260116559168    2.49097394373149    2.30636572273477
C          14.93811808448419    3.25113577091459    3.39339116658991
C          15.93516538271714    2.64118535811076    4.08881828680242
S          16.31850834322806    1.09936776380312    3.39482707251401
C          16.66734185685920    3.12957561271707    5.28646381395939
C          17.25867965080300   -0.36257005108163    0.73144680342252
C          17.98881320462373   -1.22923243907425   -0.02905890075926
S          16.97168911159876   -2.27986331538775   -0.98732713015565
C          19.41150155921473   -1.33489204922561   -0.08230288262398
C          20.31118670822689   -0.72460399835643    0.74345951437664
C          21.66004096214812   -1.02197523376797    0.43503740366166
C          22.81488991514518   -0.58048675518380    1.11112858240906
C          22.72598103851777    0.37470802299344    2.19656727514263
C          21.95316357290070    1.49951521932461    2.26745986096663
C          22.10843102122578    2.20736493744535    3.47594311414282
C          22.99028362237155    1.62695955417652    4.33431164291891
S          23.66323409697579    0.18181669597702    3.65262580882285
C          23.39607328876931    2.07820471592579    5.69074233846105
C          24.02514642649203   -1.10135125420275    0.66879006790720
C          24.13171219703149   -2.00409309791128   -0.41989591164800
C          22.97812388775675   -2.42268079855285   -1.11757417772844
C          21.76763746361889   -1.91205565096572   -0.66217304751391
S          20.19552911343255   -2.31876343106481   -1.29712081480432
C          23.03707260051331   -3.31615102622655   -2.25607879263332
C          22.30554739479360   -3.24786306473418   -3.41013781380921
C          22.60452816781855   -4.27741525179440   -4.32336254370578
C          23.54884710635194   -5.14782093384977   -3.87157714978631
S          24.09779296229384   -4.70115954647965   -2.29154571780962
C          24.11507767403057   -6.34274959651854   -4.54858110320687
C          25.47826588257759   -2.32245318988209   -0.70447326347372
C          26.38232468379109   -1.69944186505488    0.10938278909010
S          25.59129559562786   -0.69914788456049    1.31241648177402
C          27.80601675422074   -1.77707075372240    0.10009083734100
C          28.56381739883898   -2.25461179141460   -0.91310500651947
C          28.02168190802846   -2.71060974365990   -2.23598731058168
O          28.06706069232972   -3.83804608851050   -2.64744252783563
O          27.50923096835786   -1.67176829461244   -2.90244906095302
C          26.91301155493746   -1.94235176937182   -4.16439470864899
C          29.96229691428474   -2.34166741077460   -0.79246761889889
N          31.10491485542202   -2.40300269811558   -0.70625972285215
H           0.92831052034480    1.01953594491127    0.96036914363061
H           2.13556503566346   -4.13824597377314   -1.13227616077703
H           0.40643967366644   -4.54777060924158   -1.18861069349886
H           1.35697320078733   -4.90928995109030    0.28755470302235
H           3.30124715075172    1.71408701147040    1.48372912447189
H           4.47415432562689    1.86102241206839    3.51059131450019
H           4.80567961551575    4.25276073554789    4.45566411008219
H           6.74095739501787    6.55906100821069    2.38550807804571
H           7.88275106253289    5.93049876196040    3.56862708666799
H           6.24727812115974    6.38033475996583    4.07690639944235
H           4.69119238950262   -3.84547784278412    0.05984588581979
H           5.14043659458066   -5.75587534793242   -1.63039384834211
H           6.68269749337597   -6.34120213051720   -3.64073705552909
H           8.30067458321176   -5.67953988214996   -3.36294289020748
H           7.22457554826303   -4.90432233161509   -4.52277523955556
H           9.04570128302795   -2.05764664708970   -0.45075647750943
H          11.35584564398225   -1.98385905377615   -0.87937965396580
H          15.37138706665977   -4.42823649408383   -1.18428198286718
H          14.50236139712727   -5.80707066912445   -3.19354612925914
H          12.67139167263845   -5.72612714768140   -5.04943557147271
H          12.60515214098137   -4.07634542061476   -5.68546692095932
H          11.30686683039315   -4.66569302210572   -4.65377278318417
H          13.69464116107853    2.83660910256229    1.63849736435386
H          14.54940661997821    4.22062797721436    3.64997304542315
H          16.32418578601019    4.12728764099480    5.54945873795155
H          17.73987442492648    3.16319643624580    5.09639500011944
H          16.50170617304320    2.46644341441414    6.13562257587741
H          17.71317193011134    0.37602843575121    1.36369293276967
H          20.01879769079321   -0.11293442333343    1.57584811658498
H          21.32573897875985    1.83348282427401    1.46020004085388
H          21.58321441925634    3.11963669356644    3.69810297864595
H          22.87490804764571    2.99715023957265    5.94849379665806
H          24.46978716218739    2.25946747897671    5.72997971428010
H          23.16018537680328    1.31869411529133    6.43581640085088
H          21.60207034426558   -2.46167126159377   -3.61677129484427
H          22.13435718455818   -4.36723371347247   -5.28650779420898
H          23.74252712981494   -6.40491947042033   -5.56831138322163
H          23.83683212455162   -7.25371731394907   -4.01807171860705
H          25.20316935028739   -6.29129299962414   -4.56922863335990
H          25.76691588208299   -3.02075214477778   -1.46591871233921
H          28.30857149708558   -1.42151546937990    0.99146047904238
H          27.37843332110568   -2.81828789226135   -4.62122821455675
H          27.06479807435754   -1.05946303996857   -4.78139473375213
H          25.84370636194122   -2.12571988330915   -4.02980399506334
