96
 SCF done       -195.504990290990          0.000808989741
C           1.68905522700627   -1.91824883141277    1.11961409766342
C           1.23088715089883   -3.00792322299697    0.43062885315100
C           2.01782359597042   -3.83378067152495   -0.48846777698895
O           3.18213579235320   -3.64182615746398   -0.78053380807176
O           1.30393173145060   -4.84616607114312   -0.98214166537435
C           1.97712106132577   -5.71195863578386   -1.88268535899071
C          -0.11564255553018   -3.39179101139496    0.61362074472894
N          -1.21222562402853   -3.68608224362118    0.77393415356792
C           2.95401143005794   -1.30041862505423    1.15684248879262
C           3.21009698351353   -0.19294737122769    1.96915364724327
C           4.51552639372435    0.25383344966933    1.86098370590788
C           5.26886684335539   -0.51791647494652    0.94872128974011
S           4.37758085757249   -1.78298720181373    0.23960429729543
C           6.58440595323956    0.01176948372719    0.91350945606714
C           6.66553598304949    1.10140283238910    1.79631364556435
C           5.36551248147065    1.29483506141336    2.41812211225261
C           5.01844067572242    2.25046272353564    3.32696630973817
C           5.93842303435275    3.21322061247013    3.79347208373532
N           6.68326228835975    3.99566517903142    4.17710975614457
C           3.71481805600993    2.33927364147259    3.85910107601100
N           2.65498495726519    2.41238884829859    4.29010398804843
C           7.93639152266421    1.67810163729101    1.83325375662637
C           8.81634380724074    1.03826423302467    0.98302560091669
S           8.06658395443509   -0.29603094073476    0.12277606803623
C          10.18722856459926    1.34444095393178    0.76380902345534
C          11.04449700337294    0.74090708731408   -0.11191961844667
C          12.35298895880830    1.27631557812580   -0.08744794404114
C          13.47531046665699    0.85640440184380   -0.83092213045092
C          13.39616908696192   -0.16644524027092   -1.85292417770696
C          14.31866158896719   -1.12723854300099   -2.15510475596884
C          13.94256151801978   -1.91930389248968   -3.26137306464722
C          12.74889244908031   -1.57274617220913   -3.82500504528518
S          12.05483626921692   -0.24046420426650   -2.96623914224051
C          12.06086038708095   -2.17385345404894   -4.99451435629414
Cl         14.92181557006532   -3.21146047657022   -3.83906402523302
C          14.67742944292089    1.49531975122498   -0.54577804025709
C          14.80609568084341    2.52863817845483    0.41646353578433
C          13.68063291979642    2.95760124122848    1.15040121018827
C          12.47895515079443    2.31635388739799    0.86747803689871
S          10.96418775803534    2.62352294186224    1.67241206234527
C          13.75286465471195    3.98989547815857    2.16354632230307
C          12.82642335770846    4.95300106221757    2.44592233174951
C          13.19041775558677    5.75806183189212    3.54689252429974
C          14.37882373122462    5.41944595859781    4.12626347050595
S          15.08294986016787    4.07845436578954    3.28920414271765
C          15.05427970874889    6.03450237736910    5.29591343602736
Cl         12.20408214409976    7.05548046114261    4.10012971274935
C          16.12287885338414    3.04211566112691    0.46242073838908
C          16.98126491829276    2.43244709382134   -0.40824624918955
S          16.19323208417253    1.18079683567501   -1.34502402888897
C          18.36579531643294    2.69693095535666   -0.59095477427884
C          19.22624514984464    2.08825487398661   -1.48377332137898
C          20.52557560685545    2.58643486868410   -1.37836534182290
C          20.64937662399808    3.58030796870934   -0.39415189779640
S          19.16928788401373    3.90373634170742    0.39750059055375
C          21.99762719631186    4.01465047678726   -0.35538446078506
C          22.72913187614211    3.29503527198269   -1.32297664341253
C          21.82994964168480    2.36428069660956   -1.98651397269794
C          22.14005692771451    1.45160409673897   -2.94994698976298
C          23.45230371456881    1.25692188585644   -3.43452778511308
N          24.50839530326462    1.05517830331523   -3.83109613755040
C          21.16265143333129    0.60502370753985   -3.51702397405593
N          20.37184136803453   -0.08254295712565   -3.98187041991385
C          24.06798682778567    3.66523785484297   -1.38400618261579
C          24.38194147362160    4.65255474606153   -0.46303276697592
S          22.96542271467969    5.12663005427404    0.48814679043463
C          25.59304984405106    5.30494852692774   -0.13244005831321
C          26.84050619359804    5.21587197990042   -0.67642355917282
C          27.26563231908790    4.47186836488245   -1.88607254006154
O          26.54372613908381    4.08287318706434   -2.77131746264488
O          28.59283603736786    4.31382944607191   -1.89287712366035
C          29.13713065386294    3.65001999176030   -3.02375415885260
C          27.86961034033611    5.95245091566123   -0.04861247838768
N          28.68800346787478    6.56169433607357    0.47549831359073
H           0.95838590284955   -1.43569650355703    1.76208160328024
H           2.84204746649893   -6.16794223138761   -1.39642499341854
H           2.31792473850902   -5.15760953760024   -2.75957059143475
H           1.25294104752755   -6.47029671612253   -2.16649019441410
H           2.45786455142551    0.24302376702262    2.60229771572338
H           8.22309123261132    2.51823092193315    2.43996396473329
H          10.74090859616687   -0.07517926670702   -0.74149985816218
H          15.21854429077714   -1.29979891320770   -1.59500519575289
H          12.00516832040004   -1.45949123010014   -5.81587409681014
H          11.04416157134168   -2.46569608309075   -4.73494323900631
H          12.60920064787162   -3.05073433926941   -5.32908916414233
H          11.93194117702280    5.11777734020795    1.87484747813773
H          14.50411048956567    6.91713445657215    5.61194070201804
H          16.07484159071814    6.32044549216993    5.04506051314255
H          15.09802712861980    5.33117468743915    6.12753440287287
H          16.43274760452060    3.84487240679277    1.10600560036861
H          18.90448046884681    1.32386533780444   -2.16796534951036
H          24.78851568944981    3.26221580984923   -2.07128679540367
H          25.50945691641683    5.97217833130672    0.72063461764674
H          28.66011098526852    2.67696424317012   -3.15898289530799
H          30.19879523982977    3.53560289613364   -2.82315751965398
H          28.97839880541235    4.24680982937766   -3.92432284064547
