114
 SCF done       -226.600791051971          0.000698949706
C           1.24292684391529   -0.58811433163877    2.77833504153851
C           0.36750514511311   -1.52170453715277    2.33420124525578
C           0.73475481899218   -2.78409496615509    1.61946082923347
O           1.61774587232811   -3.53007094548784    1.95820454324373
O          -0.08061985291560   -2.99532804237966    0.58779887630858
C           0.12104660867330   -4.18830918347493   -0.15984830494917
C          -1.00994804175174   -1.38219988614808    2.59516694768089
N          -2.13343639797599   -1.27945460437843    2.80313795841146
C           2.64276949272808   -0.55646300983879    2.51335239713573
C           3.35118914652358   -1.18654776282974    1.52906984315537
C           4.74210280153054   -0.95668423960438    1.58841320364970
C           5.73633052029029   -1.48652652819210    0.73796594513232
C           5.40334259204383   -2.48684337763226   -0.25268434905502
C           4.50549503574874   -3.51278881075085   -0.13903438364835
C           4.43762510044621   -4.30155484535438   -1.30699909911791
C           5.26799461886953   -3.90021110374415   -2.31394509403071
S           6.17146975799128   -2.51033228768767   -1.81778546984630
C           5.45455969297220   -4.49313105440315   -3.66156031496747
Cl          3.38401260312583   -5.65997959841801   -1.43633314479491
C           7.02941926867506   -1.02130200872548    0.94120687409413
C           7.37390045115188   -0.10168942125086    1.96524142641676
C           6.38402319813610    0.39917851591858    2.83513279561303
C           5.08711028380516   -0.05848693862033    2.62888346197525
S           3.68123049617078    0.42525595382279    3.53173022842395
C           6.70982865326707    1.35656260979979    3.87315524154703
C           7.52406269097967    2.44912917708769    3.78483244693895
C           7.60755608975929    3.16378993387677    4.99931334446254
C           6.87504799777520    2.63073269796023    6.01984165807353
S           6.04368531810804    1.21319292725847    5.47660463377010
C           6.72766442144307    3.12080582026251    7.41338616138751
Cl          8.56241272653622    4.58853186223284    5.16361562639018
C           8.76519997703995    0.15568459199721    1.99350215529277
C           9.46527950745062   -0.51178998218898    1.02912506830159
S           8.43174258876679   -1.51673463145370    0.03472684115619
C          10.86037723869386   -0.45489770494227    0.76078516448165
C          11.55276532302605   -1.14222474591120   -0.21475811192070
C          12.91232544515099   -0.82332801355676   -0.21342501575357
C          13.25178138517527    0.11511144199003    0.77337341885984
S          11.90367250235820    0.60203753755340    1.70057643160337
C          14.64336089010722    0.38508316915494    0.68322005568302
C          15.17969136993347   -0.38390428037886   -0.36187248507602
C          14.11223243744649   -1.17375501886615   -0.95634618390051
C          14.21618326819688   -2.05615787497924   -1.99095859295189
C          13.10420764407317   -2.76873899470383   -2.48738503160923
N          12.20460354185980   -3.34850448832877   -2.89881001069510
C          15.44652704828753   -2.31649704677708   -2.63052689809541
N          16.44701391220986   -2.52887794309733   -3.14887348540571
C          16.54732804270755   -0.17391649758634   -0.54492264902635
C          17.05253166667134    0.74674193705329    0.35327924073273
S          15.82062708358673    1.35875274134760    1.44264874675783
C          18.39220434353495    1.21855061449481    0.44975685233620
C          19.45306605186295    0.88562030958349   -0.34649032957689
C          20.65293211041376    1.54983945935914    0.00094351709762
C          21.92193989442318    1.40641320577444   -0.59730626265411
C          22.10913049208829    0.57964246647453   -1.77225955115285
C          21.30830736930757    0.49481291264415   -2.87522717898580
C          21.80393815060258   -0.40875552507651   -3.84008828429735
C          22.97061620046352   -1.02388579071363   -3.48871085601861
S          23.48878228547267   -0.47237835293375   -1.93173983035246
C          23.76234795861765   -2.02203622005097   -4.25011116762095
Cl         20.99033378113872   -0.69627578305313   -5.33056763581201
C          22.96636163875892    2.11604112957115   -0.01418776577097
C          22.78876365572999    2.97512309311243    1.09949543593175
C          21.52248178666363    3.10667876445701    1.71121523020074
C          20.48175750846545    2.39894849174248    1.12479715164208
S          18.83446965278742    2.37404811308767    1.68818272779734
C          21.36132164073216    3.91038534276857    2.90316895228684
C          22.23443911040179    4.04792425060433    3.94679257380763
C          21.75551004093040    4.93039514945673    4.93815345193976
C          20.52885192781289    5.46947043816083    4.67642859896119
S          19.93032284148344    4.87265824987029    3.16584167839684
C          19.73808773485482    6.42636680650386    5.49023970258345
Cl         22.66473546514729    5.29267340709662    6.35588555726938
C          23.98092533337795    3.64232170746062    1.44821746754097
C          25.06102099329701    3.28063079672729    0.69216664751435
S          24.61671971863860    2.13170357989089   -0.56083754995701
C          26.41578610341422    3.70848738057379    0.77493655564369
C          27.03819434617876    4.29081007390287    1.83249286032280
C          26.49000087365423    4.45752264443410    3.20774917861263
O          25.68464498770403    3.73034728099708    3.73431410761385
O          27.05135749713561    5.50428135871113    3.81593868088720
C          26.65307926437922    5.73442079941251    5.15994899735118
C          28.37435914322070    4.72078002244999    1.68246979715425
N          29.45981843005141    5.06755845587468    1.55256484820993
H           0.85698163111542    0.21833081675842    3.39081287630403
H          -0.83059441342328   -4.42375799089898   -0.62949507847759
H           0.44008318431716   -4.99796710428916    0.49881634181281
H           0.88595469269965   -4.02368466922017   -0.92169767293477
H           2.88973210702601   -1.75717354298703    0.74732953569097
H           3.94213886901553   -3.73394594006696    0.74990193939430
H           6.48746154212875   -4.81171245454335   -3.79802389423680
H           5.22500510905735   -3.76381610877061   -4.43769636795880
H           4.80008743522871   -5.35319749390244   -3.77882628148746
H           8.01204321938853    2.76641763032539    2.88190450713079
H           7.50804010515455    3.84521684002399    7.63392105093403
H           6.79326025334696    2.29515569122887    8.11924853915624
H           5.75849865532395    3.60222538454046    7.54830809124018
H           9.23963552260866    0.79407937706948    2.71630858863910
H          11.07488350729476   -1.83281618903120   -0.88614158937773
H          17.14818194173730   -0.66133371086806   -1.28975557797621
H          19.38667669236886    0.16836257111615   -1.14228209929788
H          20.42265123620306    1.08448624605309   -3.02396494924517
H          23.24264834966474   -2.27723875528892   -5.17011810645607
H          23.90821757881903   -2.92664369236614   -3.66125786306609
H          24.74516598769706   -1.62208278253576   -4.49851335873416
H          23.16705367021046    3.52028274206398    4.03602060485838
H          20.28539339029703    6.67819809264785    6.39516369900463
H          18.77759799597868    5.99202792625063    5.76562857151103
H          19.54342148255623    7.33915025789423    4.92807613123404
H          24.02488627637488    4.39931459953083    2.20520280070084
H          27.01049355446182    3.54186506092278   -0.11660182103407
H          27.18288567911515    6.62601524014637    5.48321636318507
H          26.92070080957048    4.88010727706422    5.78492056541250
H          25.57288677411847    5.88638383724145    5.21638106725782
