80
 SCF done       -160.650195108681          0.000474619417
C           1.59530912304571    0.61286612518835    2.77737742839278
C           0.33865164180220    0.16129431125233    2.49840040070036
C          -0.08896697800436   -0.73149578338222    1.39477300328709
O           0.62700522004320   -1.46949512403814    0.76292687568769
O          -1.40996336321862   -0.64581763406910    1.20951488856574
C          -1.95715679536618   -1.48943841413691    0.20712172055869
C          -0.69304408868456    0.52981834362981    3.38940729802467
N          -1.51462561565423    0.83439887743300    4.12979581477944
C           2.80584384146663    0.48613777115515    2.05709928665750
C           3.09640911687890   -0.01785758160135    0.79934601530012
C           4.44591589743552    0.09226167625433    0.48512478294928
C           5.21208141224309    0.67558029083752    1.51892365347829
S           4.25802970480022    1.11109719649335    2.85737380753736
C           6.56694169290282    0.69453399303805    1.11723129607577
C           6.66447680654050    0.13193769850131   -0.16724243946026
C           5.32996418769084   -0.24612006079240   -0.61479037374536
C           4.99158157288156   -0.77570238550250   -1.82509346006174
C           5.96174632784864   -1.05722489090014   -2.81045588017040
N           6.75178956913573   -1.28585570239165   -3.60959893256394
C           3.65788617294631   -1.05125712016942   -2.19791900053627
N           2.58302191245322   -1.25778646859855   -2.53813640965475
C           7.97057147181979    0.08866160518923   -0.64560332183951
C           8.87916271061884    0.60878468033166    0.26246378389442
S           8.09047499851974    1.17270039317090    1.73223007284108
C          10.29172419932013    0.70154762779180    0.11456998932533
C          11.11051015385404    1.20951968370306    1.09714768242388
C          12.49774454829721    1.29503410358315    1.01849918644869
C          13.21411069443637    0.72659333695856   -0.13327617754388
C          12.61021122645649    0.20794775756409   -1.22441720775199
S          10.91107445744769    0.10779404550753   -1.42253579142646
C          14.59571686822510    0.84906316667503    0.17703346570022
C          14.74161249100199    1.45510084595568    1.42525864030155
C          16.09804026023720    1.60505192389492    1.78905986468410
C          16.92650979013742    1.11639055547836    0.82961023199339
S          16.10399801368252    0.46340156983646   -0.54786963615380
C          13.44054889184082    1.77268815998868    1.95391859702936
C          13.27115234083752    2.46673364478276    3.17440403124090
C          12.16328715917475    3.13400460055779    3.59738761224176
C          12.07840452220408    3.83252473217600    4.82546635896543
C          13.00364653461128    3.91725363756675    5.85824018308928
C          12.55924048588258    4.72944086028758    6.89519370529876
C          11.28156477665221    5.27587507381911    6.66699884049305
S          10.63138754835815    4.77397368322257    5.16836781789286
C          10.92673527172028    6.09541402058898    7.76360861391182
C          11.99191984201467    6.06135358852249    8.69568706763649
C          13.04468473194123    5.20377482842824    8.18301920215281
C          14.23865991932454    4.90510741608723    8.77250371204848
C          14.60517497977624    5.42431287182235   10.03162719903903
N          14.90580184426712    5.84437043552379   11.05534764081526
C          15.18388547679887    4.05870156549899    8.15743994554834
N          15.95482959518037    3.37485476687075    7.65376463581150
C          11.74087598517134    6.84796752996649    9.80567318061674
C          10.50195438423453    7.49022651743668    9.74024293054381
S           9.63539614633068    7.09136804062557    8.25730643451745
C          10.05462464074698    8.34713141178690   10.76226384103998
C           8.90723030118216    9.08264877264384   10.89547996664222
C           7.80880645067822    9.13961998394147    9.92965956358350
O           7.76231968759681    8.52502606630086    8.88173128825411
O           6.83728291038079    9.96204380620524   10.33124278757902
C           5.72225886553211   10.09147290209663    9.46376221869351
C           8.75404473743900    9.86595561507908   12.05978018120906
N           8.65086506396523   10.49545245049468   13.01299529525375
H           1.68884515519133    1.18414668632416    3.69635148253002
H          -1.41477731236901   -1.36413423403603   -0.73253187410024
H          -2.99641571514961   -1.19194397574338    0.09710137923755
H          -1.88873542707341   -2.53471956725666    0.51585171615084
H           2.35329274305411   -0.46117450356045    0.16351632126208
H           8.26258844482079   -0.30532146603585   -1.60219500203762
H          10.62204974917989    1.52610170008339    2.00818723935691
H          13.16482979333297   -0.18123425911937   -2.06360662966204
H          16.44859893186712    2.04372220748995    2.70542569252333
H          17.99870215355660    1.09512134590818    0.83728881496417
H          14.15595224317813    2.50570431154808    3.79581985107911
H          11.29348355778644    3.20369608165968    2.96152070588369
H          13.94888776163336    3.40766154641567    5.84646528345262
H          12.41001781927068    6.97202976073802   10.63863346096665
H          10.75805222261344    8.43489570315611   11.58508736563208
H           5.25692515414449    9.11799561623209    9.29456494494779
H           6.03501362247975   10.50425521545155    8.50207216964130
H           5.03144676534529   10.76547443459504    9.96290366848406
