77
 SCF done       -155.311766852490          0.000677597401
C           1.57873746689429   -2.57829634407987    0.53563140760175
C           2.92880256560481   -2.56891883856979    0.72577586140991
C           3.45176303731779   -1.26179304261591    0.91008036907536
O           4.75403227736566   -0.94064719413903    1.12018159601681
C           5.70132941878347   -1.94908910160834    0.83360995739843
C           5.38393518713042   -3.26215242337719    1.52914224826295
S           3.91399651643039   -4.02591275774407    0.76234657066344
C           2.46636886172317   -0.28967364948651    0.86989225424389
S           0.90463233494124   -1.00333979805473    0.58526662886280
C           2.63066650131724    1.11596416214623    1.02474282006235
C           3.80403143664733    1.80322874765351    1.26087645880515
C           3.59205639111744    3.18178516793213    1.34465673323847
C           2.24667444903432    3.54320278184513    1.17618653985869
S           1.24222106667834    2.18629080962729    0.91069523335153
C           2.14150991824899    4.95456848916340    1.27960375526741
C           3.42171410958137    5.48338879003026    1.50880276878017
C           4.37643799740739    4.38604918486550    1.55886582293824
C           5.72277378453855    4.46763871717316    1.76408398947401
C           6.55024323037789    3.32553031063798    1.79009220571323
N           7.23492879738070    2.40568708326798    1.81287776224008
C           6.38619807329635    5.69651433285939    1.96394401805010
N           6.94108156391802    6.68646045476280    2.12980691258092
C           3.43109002013836    6.87374777076261    1.61893483904288
C           2.16359698009206    7.41308006373671    1.48407905407698
S           0.94566426297080    6.17114564501553    1.20624349065731
C           1.75968538709661    8.76986005111570    1.53825477920841
C           2.50385701378245    9.90434032346065    1.83076081298954
C           1.75044155564846   11.09627961319287    1.76400313457734
O           2.20775662466618   12.35602660859307    1.97950010490650
C           3.60938019259466   12.52847250853939    1.97278913747401
C           4.30433704709608   11.57914711273014    2.93158108638750
S           4.19872996222641    9.87565708413708    2.29152745802772
C           0.41433610682188   10.88271379953063    1.44883102752474
S           0.10147120537152    9.19108129495767    1.20946154352463
C          -0.61158731394519   11.85330045199252    1.31863129297824
C          -0.50797159555594   13.22200063876508    1.48910576403432
C          -1.72571309960797   13.86587823105957    1.27154156960037
C          -2.76607249084650   12.98458406230083    0.93811228667459
S          -2.24291983473067   11.35835385840871    0.88812861815069
C          -3.95171741886833   13.73986789238262    0.74303668834235
C          -3.65784857619224   15.09666876548664    0.94890473744872
C          -2.25114760574138   15.22316652441570    1.28871764665240
C          -1.56250126928254   16.36755807889655    1.56751958031468
C          -0.18848756762395   16.35914241489708    1.88630758286366
N           0.92916256315374   16.36540733672092    2.14468165534666
C          -2.17040052775321   17.64055726150353    1.55693431828900
N          -2.64801976329737   18.68323756455969    1.55438370541574
C          -4.76549402834106   15.93072300121630    0.77411158609519
C          -5.90251593139775   15.21955991230889    0.44543627174138
S          -5.59243030037711   13.49020682013733    0.34067608593309
C          -7.21681190081216   15.70367374584512    0.19899351504013
C          -7.72453682726461   16.97997362259412    0.35882199079514
C          -9.09532306335546   17.07458968997941   -0.01194895185628
O          -9.87247629589735   18.19130479917969    0.02686432249574
C          -9.18107077767264   19.41732590161226    0.12334168665282
C          -8.23091741627780   19.44730034417199    1.30809997901439
S          -6.81632610512350   18.34006471081482    0.99463991994805
C          -9.61157076324938   15.88062814461820   -0.42361536885698
S          -8.45161205282760   14.62011976838336   -0.38405182115073
H           0.95333047134251   -3.43109183718967    0.37047986788409
H           6.65149884504290   -1.54378948154403    1.19080508723116
H           5.76302803771149   -2.10969742561661   -0.25151988302425
H           5.18107873094134   -3.10115940297891    2.58841014010911
H           6.19687241489966   -3.97424766698167    1.40915477587247
H           4.75214967301719    1.31180276143862    1.36370816122266
H           4.31224709951079    7.46498239859011    1.77958076667098
H           3.76173826103978   13.56746655007215    2.27567555896917
H           4.00242969666959   12.38687336923155    0.95677515665615
H           3.83782036798962   11.61182597990655    3.91657298202942
H           5.36504395096238   11.80445502187893    3.01259679555227
H           0.41226410761586   13.70336204377202    1.75790082344502
H          -4.74164024233955   16.99946830382323    0.86989087843236
H          -9.96314210883304   20.17204710409736    0.23940590501089
H          -8.62486685216567   19.61543159499171   -0.80365768719577
H          -8.73546025417234   19.11977637621919    2.21765302850769
H          -7.80899665461645   20.43934935203307    1.45132059023043
H         -10.61586692631521   15.69055365798742   -0.74025599225306
