52
 SCF done       -102.830879408117          0.000752475444
C          -1.44137510098607   -1.62929249721237    1.02870508716421
C          -1.16990809594998   -0.71426481766458    0.06213540423033
C           0.07077640202517   -0.08999889018579    0.29207738902141
C           0.72427940670944   -0.54235411258099    1.43561374978875
S          -0.20792367460975   -1.75687778225981    2.23846414173904
C           1.96117166496467    0.07252282676367    1.67040583249262
C           2.25839017728029    0.99975539670253    0.70183233806784
S           0.99779394762616    1.12199887849721   -0.51690263703693
C           3.42189353355516    1.81202577218565    0.60050163559146
C           3.73158317141577    2.71776389257550   -0.38633918251930
C           4.96923288428371    3.32712819425333   -0.15894742813393
C           5.61510172291507    2.89622463248502    1.00119693423801
S           4.67203888956896    1.70941462481170    1.83116087659352
C           6.85354958758788    3.50347287285964    1.22758793299671
C           7.16605997181891    4.40560911003786    0.23724384553644
S           5.91407075105398    4.50935920586476   -0.99265547759224
C           8.33311117595643    5.20820750984620    0.12891123250061
C           8.64609397984936    6.10757628127407   -0.86415703957500
C           9.88055169097688    6.72112224145991   -0.63551417864801
C          10.52322548562208    6.29856475100945    0.53004700606282
S           9.58081385917159    5.11372681191616    1.36325881788036
C          11.75510403276777    6.91623742495268    0.76156720475491
C          12.06517742071243    7.82012008041943   -0.22829465071878
S          10.82093491774287    7.90903471125002   -1.46655950606053
C          13.22413696682572    8.63551891592766   -0.32785256376210
C          13.53784342218441    9.53508407971089   -1.32018904438948
C          14.76597079470761   10.15884482524325   -1.08264994151384
C          15.40095930532739    9.74578335829452    0.09002565174417
S          14.46047673067467    8.55721406387481    0.91955201123439
C          16.63075536530145   10.36773148860252    0.32596200564658
C          16.94680960749983   11.26256498666024   -0.66889851031115
S          15.71004837844290   11.34346230817408   -1.91459101706857
C          18.11379153562352   12.06939069249535   -0.77421325444920
C          18.44682668045958   12.94024896059281   -1.78268327138114
C          19.68379019376254   13.55491172500721   -1.54772928106114
C          20.30010978818688   13.16101459553112   -0.36280895191212
S          19.33753121943941   12.00513310465338    0.48592827242379
C          21.54328467263880   13.78123009316618   -0.13544883835715
C          21.85426256231126   14.63406098625887   -1.14610800889760
S          20.65527325521473   14.70769542338342   -2.39362296977935
H          -2.30755189039234   -2.25461676377320    1.11507098933312
H          -1.81666993561278   -0.49658380946076   -0.76697355945620
H           2.60920374253501   -0.14453983777832    2.49989100015310
H           3.09075802823808    2.91997377434385   -1.22474036641148
H           7.49483968161287    3.30199231604897    2.06626090955599
H           8.00715046881518    6.30323981545262   -1.70564848135549
H          12.39338214505661    6.72170367664478    1.60383249836035
H          12.90485147787729    9.72290467742727   -2.16812806176554
H          17.26348084272065   10.17916108150662    1.17389875989643
H          17.82528695392937   13.11579344599747   -2.64146916180334
H          22.16463517766116   13.60355604219209    0.72261180183987
H          22.73234502689371   15.24057885455861   -1.24538794489179
