90
 SCF done       -175.715911646821          0.000968060347
C          -2.34815711983702   -0.45925454554655    2.65114738801415
C          -3.52784409574011   -0.17825385859213    1.93361257066827
C          -4.25239945106341    0.95792166240095    2.27040344180934
C          -3.81917188715386    1.82014778311388    3.27876674645302
C          -2.62286416834364    1.53077856601276    3.97001502452318
C          -1.90311120905897    0.37706697558882    3.64333733657591
N          -2.20289014570354    2.37829692363028    4.95154913653966
C          -2.84004056722904    3.53479398331386    5.36909140057686
O          -2.36603294690126    4.20737835368535    6.25660582537509
C          -4.08386790587570    3.81353276792019    4.63773585311918
C          -4.53460555519850    2.99438021187547    3.65129606691631
C          -4.80806870107223    4.97304541328967    4.99527739958818
N          -5.41573436283299    5.90703493360459    5.26272561751493
C          -3.99387762540410   -1.06867265042826    0.90045538806537
S          -5.68397175922372   -1.11619241596685    0.48943879536307
C          -5.47474814427521   -2.38811083458805   -0.68427413780716
C          -4.13901573419930   -2.72896058113203   -0.75035635138550
C          -3.29346748410988   -1.98771731567700    0.13021570733190
C          -1.93032115948342   -2.33925102364395   -0.05049367316215
C          -1.76589357562545   -3.30475484357474   -0.99541258722141
C          -0.51758137910479   -3.90921166525668   -1.46770569703129
O          -0.45032812001141   -4.73115183820227   -2.34586668077494
O           0.54837955547855   -3.43098518099443   -0.80380648482041
C           1.80350125431361   -3.96153832006881   -1.20708975079594
S          -3.25427375354259   -3.85322196462851   -1.73175740670316
C          -6.57007386575386   -2.93412378595591   -1.39949779329168
C          -6.57095161167161   -4.07493888943023   -2.18065793078663
C          -7.83113061131462   -4.33392135788957   -2.72094226767389
C          -8.79331901388846   -3.37402679161274   -2.36195028756338
S          -8.14919644803709   -2.16248614863070   -1.34310803866494
C         -10.02976672243546   -3.72970138444023   -2.95356488942712
C          -9.85659042898425   -4.92301267716698   -3.67219805957150
C          -8.46672887465200   -5.34028261022855   -3.55421148529476
C          -7.88924150549467   -6.44534097002816   -4.10624272009263
C          -6.52502192632292   -6.75530637327520   -3.92093668900053
N          -5.41863168165287   -7.01533017085794   -3.77164190178805
C          -8.62052164140672   -7.35668162880890   -4.89683047516841
N          -9.21349075932676   -8.09896626117197   -5.53904944953760
C         -11.02785002556099   -5.36811410339318   -4.28318893740554
C         -12.09461788910996   -4.51890215159372   -4.05181843802328
S         -11.63361383511955   -3.14333719749011   -3.05140584922462
C         -13.43351705111409   -4.65738050259846   -4.52095504736900
C         -14.38051503487107   -3.67537133728228   -4.37152092431065
C         -15.70348971348662   -3.76207931370761   -4.80856713322479
C         -16.22024134359308   -5.02673272147975   -5.35947060531810
C         -15.45937633073564   -6.11181120872435   -5.61520240438430
S         -13.77310093553249   -6.19305728996654   -5.31631888949297
C         -17.61127173838656   -4.81501161105085   -5.55427230756819
C         -17.94024983133813   -3.51171404660176   -5.17961114726045
C         -19.31375995866472   -3.23711912912685   -5.36392227751645
C         -19.97599475263219   -4.31543379595002   -5.85773200818699
S         -18.96928972490847   -5.69944583175593   -6.12586998553505
C         -16.75143587792186   -2.83037269559000   -4.74036199196793
C         -16.75228758864931   -1.45183989007122   -4.37933625810807
C         -15.68736046521708   -0.62296158693686   -4.35459682838534
C         -15.70870534050864    0.78423368793825   -4.03035188795598
C         -14.49737972644067    1.50492204636454   -4.09420380549341
C         -14.43574241617931    2.84728958353170   -3.81946730892946
C         -15.59617014858729    3.54245754874218   -3.46660028636099
C         -16.82167239754892    2.84644936969788   -3.38913431888313
C         -16.85637322351457    1.47857554582216   -3.66871363826405
C         -17.98256759022350    3.58871330147720   -3.03019508123582
C         -17.92070761835834    4.92246211377301   -2.77263297657530
C         -16.65678340197108    5.66684059591171   -2.84653986609506
O         -16.50994352839285    6.85041317751338   -2.63464399955106
N         -15.57409637865120    4.87952396563148   -3.19665081322235
C         -19.08752827603690    5.63823350086045   -2.42455754264475
N         -20.05312597937084    6.18900740415378   -2.14628359260012
H          -1.80549965566969   -1.36549812588541    2.43951491805558
H          -5.16610204050657    1.18826432576842    1.74227932334024
H          -0.99978474383554    0.14450869423682    4.18763715128297
H          -1.34251061017376    2.16169191447452    5.44277771939951
H          -5.45428892023485    3.22772462079783    3.13254576781151
H          -1.09825684696005   -1.88891402772315    0.45711654686536
H           2.55285267954391   -3.46234287244327   -0.59856143543425
H           1.97448777838486   -3.76540403318829   -2.26741690507659
H           1.82923756003845   -5.04056013160523   -1.04184175163860
H          -5.69879353568783   -4.68432801110466   -2.32814934764617
H         -11.11110072062384   -6.26108638194403   -4.87582521623090
H         -14.06696669278502   -2.78207282142637   -3.84881454652938
H         -15.86269138931611   -7.01443999675208   -6.04647551876846
H         -19.79277018279294   -2.30004741431280   -5.14490980297726
H         -21.01983082087840   -4.39463487509534   -6.09111635467433
H         -17.73595229639602   -1.05278987125297   -4.16940216932656
H         -14.71774447076215   -1.00294872600164   -4.64238683247926
H         -13.59423674345385    0.97968480766106   -4.36935173914337
H         -13.49631088121475    3.37754151350596   -3.87607511219693
H         -17.80674064207797    0.97292624069179   -3.60078816393199
H         -18.93066065808044    3.07185265572397   -2.96643387489630
H         -14.68828691188998    5.36957360079389   -3.25549544540966
