92
 SCF done       -180.871801162044          0.000965896520
C          -0.81642575515632   -1.71054060935827    1.26429888025283
C          -1.38085865309923   -2.05032572796123    0.01974075632359
C          -0.68103414018900   -1.71807217862848   -1.13332478523292
C           0.55426261251170   -1.07020562831931   -1.06576000145766
C           1.10216684318760   -0.74516225275123    0.19342392865504
C           0.39509982033555   -1.07398224067986    1.35392992437941
N           2.31069950703418   -0.11643460031418    0.24882673663580
C           3.09526110818770    0.25536604458429   -0.82972182558851
O           4.15708316100345    0.80848173649339   -0.65116993599938
C           2.50328569542677   -0.08948380243304   -2.12958944933657
C           1.30101170603301   -0.71606065885410   -2.22640925857365
C           3.23129367655868    0.25313609951011   -3.29130130853771
N           3.80059351433113    0.52173468443093   -4.24879554843180
C          -2.65274544857995   -2.73106060026747   -0.04421038534001
C          -3.29975700581709   -3.23032981080883   -1.15091312589794
C          -4.51726315987719   -3.84239922886803   -0.82937135451729
C          -4.79923649295405   -3.80329447567204    0.54636870685451
S          -3.57115475519164   -3.02012614509422    1.43205229261476
C          -6.03863770301479   -4.45147098901178    0.77589651845744
C          -6.53600911572234   -4.90160419714189   -0.45724354537473
C          -5.59711768596422   -4.52802503343527   -1.50772145188266
C          -5.72295165872872   -4.77585031311407   -2.84573087410432
C          -6.83575653934882   -5.45623449500451   -3.37888492964055
N          -7.74463671361177   -6.00813276348650   -3.81078159114957
C          -4.74661584010088   -4.36347287034061   -3.77519113711654
N          -3.95027698521869   -4.02401560355686   -4.52780508301643
C          -7.75401846596939   -5.56441053533934   -0.34854278180160
C          -8.19886022846214   -5.62966230510669    0.96334982913266
S          -7.08348597087118   -4.84490433725960    2.07243379567551
C          -9.39794886991158   -6.23170497030814    1.44351361394713
C         -10.21841845982913   -6.98044203730854    0.63223975601057
C         -11.40643734458290   -7.58581560817547    1.03420128790877
C         -11.81855363441834   -7.56662125607380    2.44534308483539
C         -11.16851104317280   -6.88770542553175    3.41454341944534
S          -9.75843883671993   -5.94773684964719    3.14152182482192
C         -12.97165698002494   -8.39626590366425    2.51379573244268
C         -13.26578141867575   -8.89491612947452    1.24414432957915
C         -14.40844373578503   -9.72491834568502    1.24914888611383
C         -14.93797797468581   -9.83464883533934    2.49536555220905
S         -14.08269537764632   -8.93885617482715    3.70643089733371
C         -12.31389294041360   -8.37416574203202    0.29826879354316
C         -12.36391168098060   -8.64826181143814   -1.09065875912294
C         -11.78270295540679   -7.91000754376377   -2.07343888795437
C         -11.80265699872639   -8.22575324990803   -3.45333450019110
C         -12.33404554289670   -9.33023134164025   -4.10594065645404
C         -12.13225241285490   -9.27086217424938   -5.48127195393624
C         -11.43968278946177   -8.11659024157319   -5.88793827482819
S         -11.03772318861876   -7.10697508474565   -4.57460396353701
C         -11.29288669510445   -8.15636527806050   -7.29778542902679
C         -11.88774983258046   -9.33219757079691   -7.78140685908476
C         -12.43520167475075  -10.07212478427706   -6.66125677502206
C         -13.09989245703747  -11.26408159346363   -6.69907525756574
C         -13.33228438940011  -11.95079257763314   -7.90820302534330
N         -13.51976192777998  -12.51010879588532   -8.89204324930043
C         -13.59811672180326  -11.88214153020296   -5.53424332620576
N         -14.00644290217473  -12.38191483061437   -4.58588884351903
C         -11.79814967245683   -9.45206012707868   -9.17337648066526
C         -11.14948956725019   -8.38490830178361   -9.75129039761336
S         -10.63252639019497   -7.20610027345153   -8.54810554482837
C         -10.88191593277379   -8.14614201598115  -11.14989794306969
C         -11.12235791245558   -9.14804217749957  -12.11178699061577
C         -10.88375161237507   -8.92704114732410  -13.44453862962786
C         -10.39376289351692   -7.69157275656199  -13.87975362844248
C         -10.13947126101797   -6.67632587552755  -12.93354555098169
C         -10.38696310963447   -6.92375596452302  -11.58193127176842
C          -9.64352381745951   -5.42994066826081  -13.41145345979757
C          -9.42281357146647   -5.21843382088196  -14.73607048311028
C          -9.67832344361307   -6.26044354044239  -15.74000923184714
O          -9.50988376347777   -6.15882113326334  -16.93462730221550
N         -10.15483446490097   -7.44232978323186  -15.19890276812797
C          -8.93708205784454   -3.97246284274558  -15.19189249032894
N          -8.54758693726987   -2.95004890284365  -15.53219164793737
H          -1.35091643372382   -1.96169310011917    2.16855535761232
H          -1.08212601143646   -1.95265851358528   -2.10628707962529
H           0.81138693209866   -0.82469180266132    2.31857119727293
H           2.69621534880910    0.11124575548135    1.15867200372620
H           0.89370626941498   -0.95640155119409   -3.19894017368550
H          -2.91054846499005   -3.16710420712402   -2.14997812024710
H          -8.29299221146418   -5.97012051721354   -1.18388023327008
H          -9.88496042606070   -7.14013567333197   -0.38059060679929
H         -11.49791759328390   -6.88021465663203    4.44147396889434
H         -14.81838318492211  -10.21661806778280    0.38586100024222
H         -15.80015755009436  -10.39744413198336    2.79544572773688
H         -12.95981274517539   -9.50663177435972   -1.37116901027184
H         -11.28820758159187   -6.98254213262096   -1.82472726094744
H         -12.83740048374957  -10.13040686254212   -3.59599264504692
H         -12.20362348954538  -10.27726965754257   -9.72868826235901
H         -11.49411543723377  -10.10969665973628  -11.79737155422613
H         -11.07247595383717   -9.70661055295278  -14.16759916572527
H         -10.19125733035409   -6.13657522233293  -10.86838182488425
H          -9.44429608420019   -4.64232363926767  -12.69759639727250
H         -10.33987770198461   -8.17847917742078  -15.87137351312123
