100
 SCF done       -182.574461880709          0.000878653209
C         -11.90838360714149    6.97708919648162   -4.30438810142249
C         -12.09915957610848    6.90003597309304   -2.91107468800508
C         -12.21749534135638    8.08390502900446   -2.19855716776438
C         -12.13807747753055    9.32605180988558   -2.83328714647864
C         -11.93598604215238    9.37859930528706   -4.22825251614743
C         -11.82616347639661    8.18583929107329   -4.94903926861172
N         -11.85987483628464   10.59411979525398   -4.84209711321571
C         -11.96212484752135   11.83223449732262   -4.23129599572189
O         -11.87959518231321   12.84639619899555   -4.88743011303162
C         -12.17086719305947   11.75215418984970   -2.77916231615475
C         -12.25176543381997   10.55963364708592   -2.13117970457774
C         -12.28939642031341   12.96552466490967   -2.06521878660280
N         -12.38143500998959   13.93304027776079   -1.45834184144043
C         -12.18291092301475    5.60752404021485   -2.24336537249860
C         -11.57630258454828    4.48066511457420   -2.71477036980696
C         -11.63794771833065    3.21710221661989   -2.11017498716009
C         -12.39064933293501    3.01066798209581   -0.86844051109415
C         -13.06188972178807    3.98521014922989   -0.21915874271425
S         -13.13627862494297    5.61042229161199   -0.76202326998757
C         -12.22902786504701    1.63346928463424   -0.56042372140161
C         -11.43744295700508    1.01601977604594   -1.53097050310413
C         -11.25655009647707   -0.35774450123520   -1.25220076124013
C         -11.89696956995683   -0.73253502045445   -0.11371179490218
S         -12.74486807667044    0.55280984249634    0.67252666769240
C         -11.05815849164400    2.00578089881755   -2.51246182368556
C         -10.26802165226408    1.84424501171827   -3.67822300230272
C          -9.69430275807980    0.70782947862430   -4.13608561591243
C          -8.91991641711710    0.65520630270704   -5.32861794967567
C          -8.30391671249301   -0.44732649677969   -5.85613702679101
C          -7.59129350742383   -0.20277522041227   -7.06086219869397
C          -7.69491389592425    1.16436270766951   -7.42861258698201
S          -8.65487127670431    2.08448843520091   -6.30981691260798
C          -7.11272480174400    1.76179524238135   -8.53703576555264
O          -7.38418109311277    3.09494163816887   -8.64428017821580
C          -6.97209175954556    3.84079082239666   -9.75884339928312
C          -6.33792900841028    0.93413992050105   -9.36849565243222
C          -6.24495156928677   -0.43548326070210   -9.01043537951758
C          -6.83709792342390   -1.03511393611094   -7.90719908309974
O          -6.57998777362671   -2.37008041633209   -7.81044521143274
C          -7.19088038125875   -3.16425304800949   -6.82661319225635
S          -5.26551653114150   -1.34501360522233  -10.12309662055892
C          -4.96151655895291    0.09739345180299  -11.06846537508629
C          -5.59002118778187    1.19494414664501  -10.54635516603514
C          -4.13057116494051    0.03651608692490  -12.23649383069459
C          -3.84217011695116    1.12795414088512  -13.01275319956019
C          -3.03498611113540    1.11398178157480  -14.15437134636752
C          -2.40480519815692   -0.12778830225384  -14.61624708015191
C          -2.55110895890161   -1.32296463153993  -14.00386263789300
S          -3.49778442859461   -1.56404889465414  -12.59480835120603
C          -1.66625973970691    0.23879036668331  -15.77143559662608
C          -1.81390887274933    1.60578394302385  -16.02147386791820
C          -1.10605246092274    1.99629749554456  -17.18172679284059
C          -0.45583697404674    0.95044349301727  -17.75559278204890
S          -0.66965590669448   -0.55233368510242  -16.92711926351978
C          -2.67083281406350    2.16832983057668  -15.00623933292285
C          -3.09691755062947    3.51581203504700  -14.84751111720685
C          -2.66119063687740    4.58288335918428  -15.54995466614994
C          -3.09237465179693    5.94930647790566  -15.37779669502932
C          -4.16470827721225    6.32146488701350  -14.54106382173443
C          -4.54519297102568    7.63141874745340  -14.39513671434598
C          -3.86871759524264    8.64325683316828  -15.08257154005224
C          -2.79610437889343    8.30164581364898  -15.93308329084107
C          -2.43115082946841    6.96030388357188  -16.06680016137154
C          -2.13246303998681    9.35800692337452  -16.61840055620513
C          -2.51347431893778   10.65442120225805  -16.46231566291807
C          -3.62701241658844   11.03318528992135  -15.58337035126018
O          -4.03312959610711   12.15797263342781  -15.38620676681235
N          -4.22273944189003    9.95535068500038  -14.95413653192105
C          -1.83907375596908   11.68572927345357  -17.15212226176094
N          -1.26760414917280   12.49949248368742  -17.72187597343642
H         -11.84949507726895    6.06993857732591   -4.88488555789081
H         -12.36185414317663    8.06103157000661   -1.12867591140371
H         -11.68522380557002    8.22388398492786   -6.01913376264554
H         -11.71597238535568   10.62129031033335   -5.84551713817371
H         -12.40636673654681   10.53557710459432   -1.06114804896081
H         -10.98079119723362    4.57722752947124   -3.61161339081092
H         -13.60595512932876    3.81085686704277    0.69566105882751
H         -10.68778907323877   -1.04914256295407   -1.84596595650932
H         -11.92754647294119   -1.70871470272980    0.32972563255724
H         -10.11122895266364    2.73920135614124   -4.26804571887206
H          -9.80357570909959   -0.22503620835479   -3.60479330846274
H          -8.37119105772532   -1.39883544570644   -5.36399779497065
H          -7.41503697130370    4.82733837579162   -9.62144894588161
H          -7.34317606114163    3.40860994284990  -10.69315461947507
H          -5.88278261693520    3.94348934215096   -9.79427643331529
H          -6.89334559622010   -4.18642746142960   -7.05974563209331
H          -8.28131552646204   -3.08933083093753   -6.86820568196111
H          -6.83232070236350   -2.90917897605666   -5.82473400074609
H          -5.50335698211316    2.16206452120198  -10.99988705144386
H          -4.27276643186434    2.07186343928883  -12.71269610064716
H          -2.07479638320799   -2.22155966252052  -14.36332004215427
H          -1.07314367354205    2.98759836963279  -17.59450672215863
H           0.15287762330301    0.96328717782975  -18.63866645823713
H          -3.82880458202549    3.66944131730086  -14.06602942092856
H          -1.89705450503740    4.43941588611456  -16.29832838310379
H          -4.71115271262493    5.56062592800279  -14.00637692860155
H          -5.37186215102239    7.89296499926416  -13.75018209659439
H          -1.60724550218187    6.71340200740877  -16.72073091783954
H          -1.30768619482486    9.11428448767076  -17.27441888422936
H          -4.99561971897321   10.18950347868397  -14.34112132504447
