91
 SCF done       -179.307539201722          0.000866490407
C          -2.46677940088901   -3.30495775129975   -7.91066113167399
S          -3.28094297863642   -1.81458005588404   -8.36651834613976
C          -3.63389014809987   -2.43884260000504  -10.00128248660440
O          -4.21812102547040   -1.83588981741657  -10.85303257341194
N          -3.12721623239484   -3.70541427936956  -10.10678477210214
C          -2.47585363198103   -4.24408295923546   -9.01398700003035
O          -1.99251195826189   -5.36231569664114   -9.02532748120545
C          -3.27910387479820   -4.44823459399285  -11.33904293420294
C          -1.93732943090308   -3.47354722772090   -6.66587121718893
C          -1.26108368670678   -4.57155598196026   -6.10432586977164
C          -0.80445163015214   -4.57052350637719   -4.78464679482169
C          -0.17123463020536   -5.75152109273488   -4.43972346882502
C          -0.13597321921287   -6.67471673579232   -5.51529350368019
S          -0.88787183808153   -6.08454964536696   -6.92940359988743
C           0.52218537432551   -7.83738656506010   -5.07093569823552
C           0.91142654071071   -7.66211900944870   -3.72282573250021
C           0.46758123143810   -6.34571560760673   -3.28056390537430
C           0.57412869372572   -5.79678901217114   -2.03532016008931
C           1.16357178637539   -6.44465827217035   -0.93312230105958
N           1.61935744296687   -6.93280974101074    0.00049193991239
C           0.03579923433933   -4.52345531018272   -1.74223036568578
N          -0.42790483456771   -3.50396482346040   -1.49833156045887
C           1.57130187468982   -8.75682137222911   -3.19287310261960
C           1.69434042235976   -9.80178379772879   -4.11524182713326
S           0.96806724905826   -9.37414484847188   -5.66950664323152
C           2.26028089015465  -11.07617347463066   -3.98582438492648
C           2.91262347931111  -11.59830190162265   -2.88941780696707
C           3.43841574253529  -12.90788034090170   -2.77182914805929
C           4.03796755967791  -13.17229990162605   -1.57192304775116
C           4.02627574368237  -12.07944089138528   -0.68651331648405
S           3.21998980437407  -10.71220692792322   -1.41585269484170
C           4.52783412428480  -11.92397601626756    0.59834555717956
C           5.15210991335730  -12.81994035555679    1.48615785346710
C           5.47779900932671  -12.25808965120958    2.69052656007170
C           5.13885972766490  -10.88914231290702    2.81004321976404
S           4.39031798577595  -10.34612517008065    1.32497448197041
C           5.26260398590752  -10.08045412951926    3.92146087885391
C           4.91345708592658   -8.72290483887167    3.95622798393806
C           4.70689534834316   -7.85541750175116    2.88057879186456
C           4.24603656414214   -6.61742587544498    3.27879860005352
C           4.10367995641389   -6.49189189101830    4.67848774386596
S           4.58304486540920   -7.92146542693064    5.49649063825772
C           3.57751270380643   -5.21703889100923    4.95436532653583
C           3.37417993160381   -4.53107650502380    3.72654571663690
C           3.78568767329228   -5.39366647023306    2.63825147920340
C           3.73673506142644   -5.15732116866459    1.29606488073623
C           3.16721367217179   -3.99836311347474    0.72720371228480
N           2.68794233575093   -3.09315010183753    0.21240462934256
C           4.25604264648135   -6.06498966678228    0.34664922012615
N           4.71951404039110   -6.76045636978232   -0.43943025832256
C           2.87283015290841   -3.24950633876529    3.89286057493096
C           2.67551843488487   -2.92854040232271    5.23066525247477
S           3.11381474373876   -4.27788173852864    6.29595403483848
C           2.15136435875797   -1.78400083035181    5.85829947795375
C           1.94621188935766   -0.52493753259303    5.35982402373829
C           1.28485322612554    0.54149665642078    6.08755244541346
C           0.51520542403855    0.41254979922480    7.21543295145012
C           0.21220227068107   -0.80060711997273    7.86857315783082
N          -0.10032987059582   -1.74337104378908    8.44605969781668
C          -0.11890754744160    1.49045265259386    7.86762960999931
N          -0.65551644581696    2.32037989822654    8.45236731729993
C           1.50617223864956    1.78515077526284    5.35395078159589
C           2.21370319915510    1.49199451814255    4.17600848218012
C           2.50303048140145    0.04935454142734    4.10792365206232
O           3.12692803233896   -0.51455199835176    3.23356851429703
C           2.55359056850937    2.48456063525072    3.27694123960284
C           2.17857690103116    3.78713447007590    3.56372019067625
C           1.48224996531643    4.10035026895324    4.72988071731615
C           1.14375770082144    3.09199514008825    5.63136194524171
C           1.11736270975572    5.51955768031847    5.03005506442994
H          -4.33706655053673   -4.59524868338485  -11.55697062535704
H          -2.78473338023608   -5.40840057680539  -11.20118802017806
H          -2.82111038255220   -3.89976231982586  -12.16204282027370
H          -2.05259516464811   -2.63526331169159   -5.98829285061004
H          -0.94407363182104   -3.72946498886771   -4.12955651427171
H           1.94202233365540   -8.80243694663433   -2.18650986752911
H           2.17276300312252  -11.72652940923942   -4.84672993325352
H           3.35603376338010  -13.61744823416770   -3.57624407263662
H           4.48916707187283  -14.11329750691882   -1.31229377933701
H           5.33117652685851  -13.84890117145101    1.22954747057491
H           5.95133952765370  -12.79019421763081    3.49683490578367
H           5.58639638774483  -10.54242362856076    4.84411117787148
H           4.92981189385818   -8.10428603652633    1.86161026966712
H           2.65670542754022   -2.56570748270148    3.09297865522379
H           1.89824403401124   -1.93959082761186    6.90106262686711
H           3.09318599440587    2.23590091621226    2.37612004450475
H           2.42892810789473    4.57950455582366    2.87336957832328
H           0.60928769385767    3.34708475873300    6.53232551798019
H           0.89494259105284    6.06554334852921    4.11623241563384
H           1.95316997349066    6.01753988062819    5.52301355734397
H           0.25818516520162    5.56808104759308    5.69411705177300
