95
 SCF done       -187.101742321924          0.000354927220
C          -2.26036453256967   -3.63690495742478    2.63856688336788
S          -3.44177505077115   -2.56404453424089    3.37189299613970
C          -2.60523449540309   -2.62833581267356    4.95027123377396
O          -2.95823273047043   -2.05030892969403    5.93420396819211
N          -1.50989709950546   -3.44232668275713    4.83495215300089
C          -1.25982494901260   -4.03258949079479    3.61440700960888
O          -0.31566223019537   -4.77735945366927    3.42345191133850
C          -0.64902798775113   -3.66481611252491    5.97705955861159
C          -2.33165378012887   -3.98665688672534    1.32469654980181
C          -1.48697944000581   -4.80857347348678    0.55225697120357
C          -1.69634705026522   -5.01752672361739   -0.81270440626748
C          -0.73959515668436   -5.84561155374821   -1.37350990639422
C           0.21158479399639   -6.28462537809474   -0.42423969904767
S          -0.06978097349955   -5.67018009865292    1.14045918827131
C           1.15317652794249   -7.10396692885711   -1.09544110022159
C           0.80066731983834   -7.18374686275733   -2.45506327399205
C          -0.39304828296473   -6.38652485614604   -2.67841933798216
C          -1.01420489632782   -6.16116265197737   -3.87195359014954
C          -0.52026319744611   -6.70915793652051   -5.07460470686821
N          -0.10024839159675   -7.15527156029953   -6.04401475330635
C          -2.17259528152757   -5.36281621540758   -3.97522633067687
N          -3.11980260492189   -4.72173981575645   -4.05202374054525
C           1.68168334686312   -7.96191657223593   -3.20288995093408
C           2.72033818613316   -8.45628294310193   -2.43327638826429
S           2.56838496800096   -7.99428397911627   -0.74344542720907
C           3.80567192647502   -9.27512983630157   -2.85762687938343
C           4.45709408552381  -10.21071128904865   -2.10840136774174
C           5.36063823533063  -10.93380973491108   -2.96876696003395
C           6.21610044257806  -11.95691687960806   -2.53829343058969
N           6.91049399978723  -12.79783279639010   -2.18046999363359
C           5.24209987170528  -10.46200616601488   -4.25376675959016
C           4.32575950352847   -9.36434701697342   -4.24379240195533
C           4.13519788572854   -8.44262681323992   -5.24589872773986
C           4.40499658938506   -8.61301501962401   -6.69574889773942
C           4.18960560401731   -7.39956530767498   -7.29345357128176
C           3.81212967818697   -6.44586973716250   -6.28373197832736
C           3.75303200625804   -7.07553010883247   -5.06488490637592
C           3.54857979343818   -5.08900532004695   -6.51554931540301
N           3.32963220223784   -3.97689154580207   -6.69557918681805
C           4.69355389398748   -9.84836656126969   -7.33483260068114
C           5.13882840393844   -9.95991816806568   -8.61290216755089
C           5.45291707525708  -11.17940703388014   -9.25465508328502
C           5.94709026078498  -11.31817209822213  -10.54524768247420
C           6.17853636540486  -12.64737958857693  -10.87985745475220
C           5.85955993282759  -13.54137639780213   -9.83744749507574
S           5.27416556916476  -12.73598966537972   -8.45020722984084
C           6.13262394059219  -14.86274767408544  -10.26042928306503
C           6.63024093007518  -14.80070309711009  -11.58531801460569
C           6.67225768530352  -13.41222003987554  -12.01407520236540
C           7.08482685991008  -12.92497364204292  -13.21877258905054
C           7.54465436533079  -13.76479606231495  -14.25571351132839
N           7.91758376277080  -14.43866534895106  -15.10452717082535
C           7.07809964014603  -11.54420599522915  -13.50930255892012
N           7.07225572815933  -10.42190655717993  -13.74386528787627
C           6.93452835824337  -16.05076745878789  -12.08771429906569
C           6.67360315928427  -17.07629029073805  -11.17096227601830
S           6.03477403337928  -16.45238368619371   -9.65119109637251
C           6.92037558173844  -18.42314901090874  -11.48791116306974
C           6.71750573811115  -19.55850366640034  -10.75033252734610
C           7.00434208809184  -20.91901843188372  -11.17109889368895
C           7.58800084323653  -21.32284641396871  -12.34199396387195
C           8.03390801579246  -20.47518451739338  -13.37886930091411
N           8.42634690270924  -19.85769398158079  -14.26391816006895
C           7.84059046086435  -22.67078248843280  -12.67761722018516
N           8.07425663079226  -23.74268766719065  -13.01481412504550
C           6.56970606703179  -21.80711365458541  -10.09308047445970
C           6.06233398116801  -21.02719876694405   -9.03725011746962
C           6.13956062048908  -19.60760109861475   -9.39886859981258
O           5.78834317282181  -18.65903447540342   -8.71673313043766
C           5.58385071216477  -21.60943701989149   -7.87904981177719
C           5.61149371945347  -22.99123310610711   -7.77833679586166
C           6.10582909166842  -23.78274023055950   -8.81299037122045
C           6.58857355805922  -23.18555121316329   -9.97825892615306
C           6.10199847836648  -25.27297986200344   -8.69660303323223
H          -1.22628509952780   -4.08599885861808    6.79984601988057
H          -0.20904071694246   -2.72128966286453    6.30012374099723
H           0.13067429380591   -4.35809675286551    5.66654190040753
H          -3.16079793993179   -3.56391985078754    0.76892784111519
H          -2.51490627489220   -4.56814961089710   -1.34590880207590
H           1.57098108558312   -8.18156344724368   -4.24862663022838
H           4.30801588874631  -10.42005145518933   -1.06560636743761
H           5.84883269472104  -10.76817846186660   -5.08328772615096
H           4.24856575331828   -7.16855849172680   -8.33962757007995
H           3.57476311060515   -6.59417813191738   -4.12356840281792
H           4.54066266822661  -10.75390042560177   -6.76381245026827
H           5.30832610644914   -9.07111390958629   -9.20437802155731
H           6.12355489915148  -10.47759288281774  -11.19147672181620
H           7.32975701930826  -16.24702504918510  -13.06884898721969
H           7.33018242284826  -18.54987024244295  -12.48276406365454
H           5.20184918959875  -20.99256531953218   -7.08030045240032
H           5.24321457464519  -23.46797509388226   -6.88187669282570
H           6.96742851910509  -23.81092184052759  -10.77030962703093
H           6.12398438957416  -25.58530286349618   -7.65570481447098
H           6.95243409622004  -25.70439241212722   -9.21887760880127
H           5.19493885658127  -25.67331228453731   -9.15084837907759
