69
 SCF done       -117.307440496067          0.000289015696
C           4.54848600853560   -1.43562580969288   -0.43470867198504
S           3.91556860666113    0.03748581211477    0.41987865122313
C           3.75337468121047    1.19323349011507   -0.89355921706989
C           4.26706723871768    0.99293769589369   -2.18255936374711
C           3.98675739287403    2.02131955473654   -3.05274301484815
C           4.38173265660247    2.15148158883766   -4.41339307138232
S           4.34082368693757    3.71244638202725   -5.18510594118563
C           5.00054504627332    3.05998718798524   -6.66055524299690
C           5.26547449673417    3.87066815125793   -7.79201885806560
S           4.93025740922538    5.56955970334299   -7.82535170867215
C           5.52519831422411    5.76003009467990   -9.41511256267514
C           5.97677882560674    4.56691319754756   -9.92872756952869
N           6.51773877298339    4.37101066499270  -11.15461898870229
C           6.88999494852889    3.15765021237615  -11.45059716710104
C           7.49633157037953    2.93979938052388  -12.79697389652891
C           6.73147866967688    2.06272758526613  -10.52989906607148
C           7.15639917891058    0.68102381377585  -10.90096004526528
N           6.21386236043460    2.22702173502639   -9.34181737067976
C           5.82842555902293    3.47449236368447   -9.00531443650524
C           5.20985823738938    1.70465623748362   -6.54787417305473
C           4.85394255275350    1.19310476243917   -5.29543220507302
S           4.96985181191366   -0.53983160942974   -4.94748733002888
C           3.19278155340914   -0.92474190710766   -4.81652992882679
S           3.07180340382253    3.27443765678631   -2.26223718886923
C           3.07313941545138    2.39565220301763   -0.75844191525698
C           2.43473908233817    2.94678791129923    0.38471313923536
C           2.56490396877108    2.58820592588305    1.70418150180846
C           1.78219718967412    3.36085315252909    2.57532574645926
S           1.89398833248216    3.18720519841665    4.32813603515048
C           1.26215889115487    1.48705873535085    4.46741593474615
C           1.03249587170484    4.32714420918105    1.93529991880767
C           0.12244459963754    5.27749881764549    2.47709235282083
S          -0.07372912169399    6.83427311459605    1.73702203804216
C          -1.22389734377512    7.35113076268153    2.88639726457881
C          -1.47309335836658    6.37243455227520    3.81853194415452
N          -2.32321023657073    6.46370600437962    4.86840180429746
C          -2.44369709032228    5.41000034295405    5.62448401195610
C          -3.35744908816110    5.51603676340756    6.80028721458610
C          -1.74864757837976    4.18155511128167    5.33874396202810
C          -1.97488259320832    2.97079369486085    6.18229066389958
N          -0.91485422528249    4.07275090646581    4.34141960261145
C          -0.71918467532167    5.16968823667505    3.57985818393245
S           1.33144063565392    4.28792322970783    0.21721249122142
H           4.54903474292672   -2.22470666922041    0.31102234112698
H           5.56120024038582   -1.26016964008176   -0.78495801379749
H           3.88764923517359   -1.69990854742541   -1.25442464626016
H           4.85764360254421    0.14549096914193   -2.47426038902575
H           5.51763283163056    6.72086962985485   -9.88713303013829
H           6.90964800741612    2.22185620547936  -13.36800916800207
H           8.50743150744260    2.54738746589009  -12.69916573597219
H           7.52735847018212    3.88515790768708  -13.33087164904267
H           8.22208235237727    0.65729680601912  -11.12400689351617
H           6.61967895199678    0.34187682461184  -11.78584125502740
H           6.94888088982346    0.00684948466229  -10.07477810590554
H           5.60514824396707    1.11278819156267   -7.35210867614352
H           3.12136991063948   -1.99141174955885   -4.63144794958805
H           2.70613432473068   -0.67351723348547   -5.75370301279179
H           2.75499079333125   -0.36643971723178   -3.99410785004195
H           3.23731586868183    1.82485369461679    2.04764154186116
H           1.29764287313902    1.22796252909634    5.52032539130696
H           1.88764493104627    0.81164418127866    3.89191558659912
H           0.23906621748910    1.47592238296423    4.10418127478686
H          -1.64931921896151    8.33194188935017    2.82948665139877
H          -2.81552797734238    5.30927987976819    7.72185572355584
H          -4.17150799062695    4.79721069338081    6.71844350938114
H          -3.76890487148914    6.52048992144660    6.84147056923525
H          -3.03002104913852    2.70091294986951    6.19023130471086
H          -1.66824234486362    3.16521720249191    7.20914156895120
H          -1.39397620112656    2.14188793053950    5.78982738490163
