80
 SCF done       -173.944212648215          0.000848490560
C          -1.89093606377446    1.78201476369198    2.57329113989414
C          -2.23128943463845    1.29021997712727    1.32590709513335
F          -2.64274164472078    2.13880615576744    0.37775707675486
C          -2.14292878386424   -0.06473150847169    1.03926822674592
F          -2.44901579458875   -0.47902960835156   -0.19863717240232
C          -1.70635294745635   -0.99160968953043    1.99578085338468
C          -1.37171096382380   -0.47386239126444    3.25533148513285
C          -1.46016999554219    0.88261747851212    3.53222505079410
F          -1.12940843771267    1.33005217042087    4.74909412068407
F          -0.97965749933507   -1.30302029162188    4.23620783670223
C          -1.59335501461876   -2.41708897438389    1.70758145227453
C          -0.55708626700149   -3.17136714584661    2.18117713415855
C          -0.37622757035652   -4.53199895912649    1.91107440546104
C          -1.26387517590022   -5.24166829781403    0.97797476502653
C          -2.37220873041766   -4.69547553467395    0.43173500496691
S          -2.88520938594495   -3.08714748816884    0.71821537857262
C          -0.68540601762494   -6.52859252768986    0.81433071667525
C           0.47636157672720   -6.62071455302244    1.58375163260853
C           1.09567888835235   -7.88433157376103    1.46587075721396
C           0.40632332980406   -8.69952529019785    0.62576194952405
S          -1.01582402044682   -7.97732164716896   -0.04970110243074
C           0.66393131468673   -5.38729388622342    2.29914070587941
C           1.71608069668139   -5.15214737383572    3.22701426051711
C           1.64528086625098   -4.31747875579016    4.29288456381976
C           2.72458233145375   -4.06423363426498    5.18114534974797
C           4.07515630473628   -4.31505803048037    5.00255312661112
C           4.83654961592689   -3.89497962180285    6.09136991746330
C           4.06194049402307   -3.33623229371226    7.12283338138086
S           2.39931351572813   -3.30213925102319    6.73249737044716
C           4.92981624693304   -2.93601859222172    8.16995822812982
C           6.25339123607312   -3.21363615926251    7.78801917273106
C           6.23871275109164   -3.83569085541446    6.47576100406795
C           7.31149916768586   -4.27371618475440    5.75490635072948
C           7.16658813220850   -4.88130870906448    4.49081186114810
N           7.05103449448564   -5.37742181928096    3.46335041375771
C           8.63444075658485   -4.15051704824844    6.22741480425375
N           9.71143304212269   -4.05058599386680    6.60853306334068
C           7.18973042756573   -2.82963159383012    8.74883723730742
C           6.59335451970575   -2.28615592529436    9.86942501604127
S           4.83692174709840   -2.24135439462535    9.72656092310410
C           7.23638492060480   -1.78348839848501   11.04128904599063
C           6.56701394446829   -1.54863730352522   12.21518743118137
C           7.14908203842409   -1.04710502000573   13.38240415476237
C           8.54180733943131   -0.57043940815183   13.36951209241101
C           9.39009184991382   -0.73393667138604   12.33128272080062
S           8.96153414832976   -1.49222394990384   10.85527867807830
C           8.75187204768014    0.02646651364051   14.64176275693300
C           7.59351742628195   -0.09351138422251   15.40864051877532
C           7.74468773751172    0.46838660865526   16.69524878601711
C           8.98633808711186    0.99319390442486   16.86558882221967
S          10.02017473017086    0.82290227227154   15.48626502708956
C           6.59336941339621   -0.79813945739044   14.64797329723528
C           5.34443230158352   -1.18118167638889   15.20889514510208
C           4.54930814904218   -2.17517179904738   14.74923117640743
C           3.30668354809089   -2.63478295704081   15.31189200502901
C           2.62405840046622   -3.67865456599749   14.65769926690152
F           3.14489262906356   -4.18188754438537   13.52308858682550
C           1.43722091736440   -4.20521238921530   15.13497911974471
F           0.83352586106077   -5.20087473456987   14.47012407970363
C           0.85950134232751   -3.71897677321675   16.29541066075439
C           1.50648123966955   -2.68975009244445   16.95548449879400
C           2.69577282926958   -2.15583856724906   16.48278871836301
F           3.25777903840555   -1.16162221283646   17.19153306207885
F           0.96930157108520   -2.19999312775712   18.08245314274445
H          -1.95898291975641    2.83436599695959    2.79127353862821
H           0.21431977223211   -2.67072192895332    2.74757897291298
H          -3.02424125654963   -5.24266496296423   -0.23088533135840
H           1.99906896350091   -8.17737085698628    1.96899566109568
H           0.64284165881964   -9.70819304291011    0.34842547417613
H           2.61103736911727   -5.74274985239500    3.08118716917513
H           0.70786898144524   -3.83884628993171    4.53969842508926
H           4.47672065916051   -4.75772752531034    4.10995703497409
H           8.25400988731103   -2.94746308179191    8.65189084235388
H           5.50528192965395   -1.75332947283582   12.21123545080532
H          10.41754159499937   -0.40750186434828   12.36527042334427
H           6.98295763743343    0.48970340180066   17.45326872250563
H           9.37844121403318    1.48376426810210   17.73501228918645
H           5.08199727318279   -0.64923584013141   16.11078569270284
H           4.87187772302805   -2.73967285458520   13.88776240323299
H          -0.06205970877002   -4.12810229886993   16.67209588063837
