52
 SCF done        -96.387637581050          0.000506367107
C           0.64289054859659   -0.50257142255807    0.86100975753465
N           0.83697000415724    0.52977926884918    1.66458570887928
C          -0.21935397085151    0.95599899794422    2.34082971156083
C          -1.46283886699212    0.35876411454267    2.22007326472576
C          -1.56023112840751   -0.72516095690769    1.33977510803733
N          -0.48598456261349   -1.14616266192872    0.66202836390717
C          -2.81727160817934   -1.41508609054993    1.13146860492297
C          -2.95329352300474   -2.43850594897423    0.27407907830711
C          -4.20672246712773   -3.11650389419851    0.04800219633663
C          -4.32193869791238   -4.15541550527582   -0.88479343990145
N          -5.46453747103375   -4.77335769918971   -1.10503291764254
C          -6.55091244184615   -4.38556406436417   -0.42294777146536
C          -6.42383679441581   -3.34754816105688    0.51937926304945
N          -5.28925311762552   -2.73516452917190    0.74399678583239
C          -7.80424940425608   -5.06243739477203   -0.65221687013084
C          -8.26353853995506   -5.80525492168671   -1.72488306332345
C          -7.65817501747126   -5.95289940072472   -3.09243695317306
O          -8.37535099750695   -5.99801593391691   -4.05881916645275
O          -6.34476546917956   -6.04518567373389   -3.19005428175644
C          -9.58367900694842   -6.30094020163387   -1.50278873658068
C         -10.09509491979207   -5.91936387851694   -0.29552334873222
S          -9.00898134675652   -4.96542138928334    0.60745006905375
C         -10.33063165625535   -7.16421817827461   -2.41582850451845
C          -9.74565857025500   -8.25534931370866   -3.07244877644647
N         -10.42297925120628   -8.99653844479819   -3.91778148722691
C         -11.70486939574885   -8.69569369966034   -4.12066083447872
C         -12.31557922140280   -7.67430550109381   -3.38684848170876
N         -11.63301589931833   -6.91778568120599   -2.55027648753586
C         -12.45515440979448   -9.47191216634121   -5.11443132647101
N         -13.74620884620860   -9.17124468540973   -5.26220979438039
C         -14.41569948093004   -9.86189166703945   -6.16801336956944
C         -13.82820263832088  -10.84937576802125   -6.94023863750052
C         -12.46971895223354  -11.09842613240805   -6.71097204372192
N         -11.80485876203214  -10.40295598967555   -5.79163963957206
C         -11.67798805625388  -12.09612001506720   -7.42151515134157
C         -12.10871989518793  -12.87667083103990   -8.40435762470679
H           1.50470621205749   -0.85336797181959    0.30703614017341
H          -0.05261992157657    1.80097955768942    2.99690972733053
H          -2.31907348704696    0.70899066873200    2.77387003723388
H          -3.67193738650927   -1.06860393063032    1.69487364562887
H          -2.09725111224000   -2.77711000138585   -0.29171525440912
H          -3.47624813566531   -4.50079083895338   -1.46275793559011
H          -7.27617986640822   -3.00708710549294    1.09211464715765
H          -5.87063381555669   -5.75101047677348   -2.35901159726462
H         -11.05927597259744   -6.16698681700789    0.10103195367672
H          -8.71601659609101   -8.53907675875887   -2.90200139747646
H         -13.37094031494873   -7.46792950990790   -3.48802326565409
H         -15.46305183391247   -9.60595626129336   -6.27343847975926
H         -14.39591597793624  -11.39429201558974   -7.67533074961818
H         -10.65548807238392  -12.15072755238444   -7.07518538882522
H         -13.11914478132756  -12.84426530971943   -8.77675156417211
H         -11.45502510358491  -13.58759025585365   -8.87982972224336
