96
 SCF done       -178.029536183899          0.000318088109
C          -6.47208736240218  -10.23058308890708    5.12862798587676
N          -5.50093590399745  -11.12417657852861    5.04624553744094
C          -4.79114375607381  -11.11726111469974    3.92649215501266
C          -5.04326675280049  -10.22692382334850    2.89804193281720
C          -6.09355131603387   -9.32031897407414    3.08879611637140
N          -6.80382932043943   -9.33705520164494    4.22328619753363
C          -6.43437682639930   -8.34572345374709    2.07348894014351
C          -7.46950752151787   -7.50196062267641    2.22297377551268
C          -7.90106676467797   -6.49460611471682    1.30423178024437
C          -7.47267722325921   -6.16801280629908    0.03561915974148
C          -6.41722814222331   -6.91293967809494   -0.71272350598091
O          -6.55113160825383   -8.01344656415491   -1.16041057688149
O          -5.25677217740996   -6.23804457663203   -0.85099701226468
C          -8.13686627795036   -5.02692025889090   -0.50731392452727
C          -9.06438930281453   -4.52024713302356    0.37148863962140
S          -9.14237469837802   -5.39188054429624    1.83560767955126
C          -7.89621987192173   -4.45970806398659   -1.81242412876756
S          -7.28835056531927   -5.43988122681185   -3.12892281522386
C          -7.32746590147084   -4.07384684332314   -4.16460095835985
C          -7.79033348928089   -2.92730590932880   -3.52788153523691
C          -8.12171522031073   -3.15252566175148   -2.19410824946203
C          -7.78241627690720   -1.74758634115619   -4.47231707657626
C          -9.19955664361212   -1.21815114584939   -4.71077465354970
C          -6.86534111712657   -0.63076037949004   -3.96769706410790
C          -7.22553385957956   -2.39756569916431   -5.71836005266787
C          -6.98825222485169   -3.75460084322984   -5.50234555598224
S          -6.35948214241674   -4.53956433019301   -6.88684291395441
C          -6.38417037140310   -3.02294203735499   -7.77269212536916
C          -6.88078397990532   -1.98527269383280   -6.99796239338262
C          -5.89095060261990   -3.00619135655735   -9.10322924020392
C          -5.67199818551241   -1.88516735389306   -9.82939735702398
C          -5.12911551491595   -1.84298158259810  -11.15224922879893
C          -4.93509818644526   -2.92344829065414  -11.99926995858938
C          -4.35653160930882   -2.81677777852998  -13.26885386807058
C          -3.90979761734532   -1.62148027707892  -13.80709604598851
C          -4.09862617065791   -0.48274025994687  -12.98189548067065
C          -4.71234448727148   -0.59031473301795  -11.68293735785979
N          -4.75595785972164    0.62344244269005  -11.17163210891190
O          -4.21313681614306    1.43219304795103  -12.08089426478108
N          -3.81065278706650    0.78832757639649  -13.17549622057416
C          -3.27422911988250   -1.50606350643295  -15.08852068070424
C          -3.20531469696065   -2.44242209619025  -16.08088520731930
C          -2.46103009323895   -2.02346323526691  -17.20956480981100
C          -2.23069238953067   -2.72395421553545  -18.41012938447247
C          -2.70854798837517   -4.07254512200701  -18.63794807264574
C          -3.20107436274573   -4.59946468353019  -19.79713540691032
C          -3.51776545950755   -5.97074170547446  -19.68550784948789
C          -3.26512892326720   -6.51293092370559  -18.45994603875037
S          -2.62876520270787   -5.29976479382544  -17.40049999440392
C          -3.46898619210591   -7.90870183971751  -17.99652791209626
Cl         -4.16861133334694   -6.87107271454601  -21.00149888307727
C          -1.49346212596735   -2.05590071262572  -19.38463110845599
C          -0.97694446956212   -0.74937373612625  -19.21441614566606
C          -1.21409471792332   -0.04800081978803  -18.01925435675732
C          -1.95546958895654   -0.71007874582807  -17.04351273805131
S          -2.42643677827298   -0.03643244373104  -15.50779597559423
C          -0.72196662926097    1.29578328390589  -17.78469334402031
C          -0.20898265579591    1.80390372166330  -16.62647627897933
C           0.13121354694266    3.17001397101639  -16.73194242661407
C          -0.12546491757165    3.72509594953671  -17.95094948029479
S          -0.79750699969658    2.53236825304879  -19.01124512503535
C           0.09915585393658    5.12049450127239  -18.40581124749409
Cl          0.81535257075028    4.04794384964481  -15.41851822960491
C          -0.19715692860545   -0.34476765577320  -20.33828171360750
C          -0.13438932962459   -1.28416371224792  -21.30263717238722
S          -1.01692236447050   -2.72137045964291  -20.92451180413365
H          -7.05619104468689  -10.23378902230822    6.04078985015508
H          -3.99791209262620  -11.85165885667243    3.86415733232716
H          -4.46531893254969  -10.22805304651560    1.98800152382640
H          -5.81410822847483   -8.34742717225705    1.19113475497786
H          -8.03550868845744   -7.56898854989241    3.14318878546701
H          -5.29574691082154   -5.34862570386869   -0.47457885233841
H          -9.71798521006934   -3.68651292026406    0.21254651500044
H          -8.48417180866993   -2.40195354146372   -1.51543013171587
H          -9.61108903408373   -0.82181351710618   -3.78572171735431
H          -9.84613755848036   -2.01717775881390   -5.06638045918500
H          -9.18191190881895   -0.42625781601959   -5.45532116317369
H          -7.24554126490068   -0.22786532592784   -3.03214270895608
H          -6.81605694382089    0.17065031251792   -4.70045876219108
H          -5.86064131727038   -1.01285162128192   -3.80160126558379
H          -6.98340004979213   -0.98174696538018   -7.36744496135229
H          -5.64480925689487   -3.97416847771455   -9.51823003090841
H          -5.86311238682995   -0.91618733811922   -9.39150506199920
H          -5.24253166368011   -3.90510930850816  -11.67342896711358
H          -4.23697814262998   -3.72099086534521  -13.84561106568722
H          -3.69491819649586   -3.39584535345368  -16.02030931108907
H          -3.36799661452421   -4.03254776727996  -20.69372531351193
H          -3.86978366295119   -8.50794306283630  -18.81017525123921
H          -4.16485616525949   -7.93889921596775  -17.15855552126117
H          -2.52694492176095   -8.34503151616715  -17.66580893317622
H          -0.04523784952995    1.22748972867146  -15.73547300869814
H           0.55777711864430    5.69504445380142  -17.60487231925332
H          -0.84397647635644    5.59080159216786  -18.68293290629531
H           0.75290994518909    5.14102285748278  -19.27714014069365
H           0.30083685282061    0.60407986263855  -20.40672008073290
H           0.38279016512934   -1.23281421783946  -22.24065366798189
