48
 SCF done        -90.950827163081          0.000493615286
C          -0.95541336432481    0.49509834202550   -2.12472522974209
C          -0.11629047293823   -0.24824472017810   -2.89398246160307
C           0.17896578071956   -1.52509236786783   -2.38013683206655
C          -0.42005286054337   -1.83198746321449   -1.18376523619565
Se         -1.48777419649636   -0.39558648950350   -0.58967176176779
C          -0.29287575895806   -3.04504774880804   -0.44859669554239
C          -0.88552397455829   -3.35767719007477    0.75238018176982
C          -0.59324671885831   -4.62529175215205    1.26569457156770
C           0.25188233429223   -5.39353857746814    0.49681216050261
Se          0.77294179967401   -4.47215842253231   -1.06369854079988
C           0.71594467611222   -6.70564563282659    0.77139028961231
C           1.57142997541038   -7.47054247056881    0.00307477691820
C           1.82275692487156   -8.71898388351214    0.57458020353304
C           1.14997627799435   -8.90790747525159    1.79154671763671
S           0.20970298654135   -7.54933118028924    2.23134060071639
C           1.47128112432329  -10.19624274438409    2.29135414334660
C           2.34708500317821  -10.82065808822267    1.39013536059995
C           2.59619006916779   -9.91480933796487    0.27978243748923
C           3.38850041410299  -10.13966576090462   -0.80747440613266
C           4.09091459502274  -11.34962784974416   -0.98709101832089
N           4.66296655448264  -12.33185324890469   -1.13901117610781
C           3.55806075454794   -9.17812135629827   -1.82529301117161
N           3.70055686173096   -8.39920650437842   -2.65472358883987
C           2.72975598669502  -12.09837981421663    1.80137735731696
C           2.15482801259950  -12.45499080499042    3.00540345821930
S           1.11671599421591  -11.18355461172547    3.64166093546484
C           2.33056036181769  -13.66943631160396    3.71711112840250
C           1.74498857157765  -14.03575229736715    4.90809011105297
C           2.10849616025674  -15.29616584259225    5.39281644001201
C           3.00221745712436  -16.00127437174877    4.62122133763522
Se          3.47950955655299  -15.02361276867707    3.08268006017703
C           3.54063822082161  -17.29259165620562    4.88716203216647
C           4.45652570220933  -17.97768058947075    4.12816390719653
C           4.82824673290169  -19.24159378213597    4.62423986837988
C           4.22056674833930  -19.59816774895090    5.78696453915353
Se          3.05236040627977  -18.29962716632053    6.40513887602497
H          -1.30612197378940    1.48957118372645   -2.33228648674312
H           0.29230352954939    0.10908478262015   -3.82406604491970
H           0.83039042605242   -2.22723800236850   -2.88077744777372
H          -1.53407163748361   -2.65622415097261    1.25661387004999
H          -0.99589907831710   -4.98484819116102    2.19850690911981
H           1.98324732159708   -7.11514260855009   -0.92746804426670
H           3.39522774066969  -12.75456684606892    1.26441612793388
H           1.05544683924843  -13.38801982611722    5.42436779612805
H           1.72234761469766  -15.70311305960241    6.31594876394930
H           4.85709089926584  -17.56029974116458    3.21535424306604
H           5.53942498886515  -19.87411223833231    4.12027187607781
H           4.36133463275606  -20.51425161298110    6.33109690076311
