109
 SCF done       -231.573424982173          0.000913456444
C         -21.62353667719086   -2.54991999856287   -2.94924965230225
N         -22.70194145225324   -1.93966155628935   -2.48751205931648
C         -22.58258415072988   -0.64409318906884   -2.23596682575607
C         -21.39836259693246    0.04193321248422   -2.44174230954555
C         -20.31789317793065   -0.69800667401646   -2.93697497501461
N         -20.44942358972289   -2.00714234860924   -3.18422447365666
C         -19.03596346587674   -0.08093287830937   -3.19840066077463
C         -18.01658219594181   -0.75459286545168   -3.75950314082348
C         -16.73656066123348   -0.19181903760996   -4.05465419757858
C         -15.63864194456024   -0.81985055546391   -4.61333833559422
C         -15.64167476583625   -2.24474647319571   -5.04202143643616
O         -15.31504569138081   -2.60573990728879   -6.13592367392010
O         -16.03723950123093   -3.13345190786373   -4.10942755718161
C         -14.54673013429267    0.07035320744454   -4.84782765012548
C         -14.84781926033867    1.34782893128107   -4.44674009633896
S         -16.42130892310794    1.50516715155646   -3.80630424832250
C         -13.27168232615985   -0.29354877734406   -5.41176290594879
S         -12.33729271282453    0.93547732056000   -6.23763754549234
C         -11.11124805334070   -0.21468998159715   -6.57479730304414
C         -11.40743321151182   -1.47290308141946   -6.06278545641992
C         -12.63214739234454   -1.51319067018874   -5.39898500987842
C         -10.31700268334385   -2.46158419122954   -6.40034518453538
C          -9.66293883627063   -3.03272311974120   -5.13963943753499
C         -10.86048858093734   -3.58558385795753   -7.28781427975655
C          -9.36559381517369   -1.57107637916655   -7.16648293656029
C          -9.86666962784580   -0.26974028064871   -7.24574778588319
S          -8.83903427814981    0.77894252343949   -8.12203650898674
C          -7.71171738838134   -0.54035313238439   -8.40079399384833
C          -8.15156888904518   -1.72151019918162   -7.81888203477574
C          -6.56499149038291   -0.27803669697029   -9.18723445767911
C          -5.59782508456995   -1.17511687936294   -9.49639247294992
C          -4.48868651565548   -0.92506300019515  -10.37091847396340
C          -3.28248702464655   -1.73945085003587  -10.09929880470496
C          -2.69610334487956   -1.73439783955860   -8.83470109316846
C          -1.53566216990185   -2.45146997564773   -8.56185048698314
C          -0.94267846222907   -3.21181622806604   -9.56336499210864
C          -1.53029969349910   -3.26314290263371  -10.82531437771769
C          -2.69021681112754   -2.54127970467817  -11.07694070602639
F          -3.23254426090242   -2.60532485038282  -12.29436348182100
F          -0.97264292386093   -3.99902951654940  -11.78779123660134
F           0.18035577950443   -3.88499899892199   -9.31544395989994
F          -0.98284947078599   -2.40128754370452   -7.34759495655513
F          -3.23005129615948   -0.98842947661505   -7.86264083926407
C          -4.49579869693222   -0.02166530695130  -11.40292156968401
C          -5.74861620376998    0.60251753918054  -11.87102368088201
C          -5.85415739904043    1.98595797257570  -12.02097995325518
C          -7.00531797288993    2.58318379902953  -12.52119935694033
C          -8.08766381630987    1.79181521223472  -12.89217202178125
C          -8.00445223954732    0.40787146437309  -12.75802285188602
C          -6.84451657894853   -0.17024173047528  -12.26021772075079
F          -6.78636030981177   -1.49998058587739  -12.15151324614146
F          -9.03823692204665   -0.35773892392486  -13.11230827598305
F          -9.19806721185002    2.35360290501685  -13.36858856190731
F          -7.07758943905016    3.91006990901793  -12.63895705507064
F          -4.84045811600909    2.76760820164533  -11.63587227976387
C          -3.32081459868263    0.31756612814706  -12.16256137243485
C          -2.01236992819584    0.22268603237550  -11.78862697565575
C          -1.09268787928615    0.50406461907278  -12.82520685586358
C           0.31015319681545    0.37943250102951  -12.79252367792035
C           1.01934527109998   -0.17905475466172  -11.65821806462571
C           2.05770474254454   -1.06703018308557  -11.70282692548127
C           2.51299759802862   -1.44674247304613  -10.42291219212718
C           1.84834337398749   -0.85602999098106   -9.38738750537607
S           0.62071555801215    0.19756140268792  -10.00107008389537
C           2.06805703615178   -1.03768472019034   -7.93046593279117
Cl          3.79274904889977   -2.56832016054736  -10.18196091485654
C           0.98450800293548    0.74524489232419  -13.95506561002800
C           0.33379491531434    1.21699693244740  -15.12100875159045
C          -1.07071361499163    1.27827263186438  -15.17171073508428
C          -1.74758577321356    0.88989310792145  -14.01925308945602
S          -3.47659167113313    0.84224674823679  -13.82985043722710
C          -1.80322751845796    1.73837249174948  -16.33538223456709
C          -2.97252446606381    1.24238582853983  -16.83583262665428
C          -3.45364435894237    1.98383561782635  -17.93699147046809
C          -2.67777188476131    3.05099018000222  -18.28314841887365
S          -1.30420013724156    3.14609731214588  -17.23396314367548
C          -2.88523506694258    4.04294404696791  -19.36789525564959
Cl         -4.90592651557482    1.56223715495803  -18.76091584653383
C           1.26995728432605    1.53751899960284  -16.14731237202065
C           2.55039316964741    1.34237536183370  -15.77246292321188
S           2.71488143286573    0.73924079562557  -14.16230541403567
H         -21.71622781987584   -3.60906639740847   -3.15461556338622
H         -23.46910795225351   -0.15091363413695   -1.85784237636213
H         -21.30805382554514    1.09663296172174   -2.23646961703459
H         -18.93162531576796    0.96118818174979   -2.92780597458749
H         -18.18869788297390   -1.78859717112677   -4.02954640889658
H         -16.28845874243173   -2.72155679583159   -3.27185354209035
H         -14.20627352084262    2.20548843101279   -4.49816959324988
H         -13.03611860784453   -2.38825150717997   -4.92561733476140
H         -10.39111603877498   -3.60410909626256   -4.56964867120729
H          -9.27984068862280   -2.22978227016430   -4.51358223186411
H          -8.83831812995211   -3.68724806071612   -5.41065383609783
H         -11.62112614360756   -4.14748496379113   -6.75224554883841
H         -10.05659702397913   -4.25944207053030   -7.57347008937950
H         -11.30808273665344   -3.17215078919414   -8.18836849964199
H          -7.60154677747837   -2.64193013366214   -7.88441016791182
H          -6.47776524206178    0.73806305076639   -9.54640053562061
H          -5.62328747876678   -2.15431233910099   -9.03993427010393
H          -1.70625239949170   -0.00183935420486  -10.78626958909343
H           2.46404537652408   -1.47219225478529  -12.61049133398830
H           3.05508202408002   -0.67287385341818   -7.64824337216731
H           2.01935129574175   -2.09532520876015   -7.67425585996016
H           1.31773127143380   -0.49999634982767   -7.35857858089771
H          -3.46159815206739    0.35982914001828  -16.46765817541866
H          -3.76273307565387    3.77064187578294  -19.94887446250665
H          -2.01889532773020    4.07972487640495  -20.02715450839181
H          -3.03290728848422    5.03967333493758  -18.95252940646596
H           0.98847503912626    1.89300440320342  -17.12061605941730
H           3.43754160590915    1.50572821530161  -16.35229697106033
