134
 SCF done       -252.640271948161          0.000543969036
C          -1.30372529269510    2.19556293497236    1.86246866943370
N          -0.82824853058814    2.62800162374266    3.01820161256265
C          -1.48203610966596    2.23560320638719    4.10333560160243
C          -2.59608750146157    1.41950013904923    4.03876817167728
C          -3.01756580204956    1.01887572191052    2.76384322845910
N          -2.35043426034833    1.42362942456314    1.67518001441822
C          -4.16960813540741    0.16579613682177    2.58520257258995
C          -4.61496156690607   -0.20865907009675    1.37261915275826
C          -5.74364737129497   -1.04796585756488    1.14311434429225
C          -6.24311729402997   -1.42611603090878   -0.07104663788570
C          -7.37831575670689   -2.26777525227835    0.00940742282187
C          -8.13124792381265   -2.82237697486864   -1.04563286344375
C          -7.86973348996637   -2.51990889206673   -2.43831685796090
C          -7.95452129709581   -3.36006632138963   -3.51136361213571
C          -7.70745214818138   -2.70750128764695   -4.73856150142503
C          -7.44520419243150   -1.37330523694360   -4.62760388174267
S          -7.48981111200417   -0.90035119623427   -2.96311554987911
C          -7.15230160975864   -0.38708900628225   -5.69789416690187
Cl         -7.74334748078468   -3.54351361775782   -6.24372858543680
C          -9.17720686271786   -3.66545513532334   -0.68347102543666
C          -9.52767563380564   -3.93954691128713    0.66129340567014
C          -8.79488428304796   -3.35999213627163    1.71484944939238
C          -7.72070976012548   -2.55459410520717    1.35512733412256
S          -6.66402415135974   -1.73524546872063    2.46784061151668
C          -9.16032110025441   -3.60295639830407    3.09657580859088
C         -10.40912773968151   -3.62003566486003    3.64692174454953
C         -10.39221266980529   -3.92371673772436    5.02603535934222
C          -9.14817064253382   -4.14582205733276    5.53981711295812
S          -7.95291967317606   -3.96444390361507    4.29986767659860
C          -8.76225550637263   -4.49190319720060    6.93112819500248
Cl        -11.83533200403604   -4.00985988915329    5.96355872816953
C         -10.63233192245015   -4.82224598214874    0.75053815426584
C         -11.13317566621288   -5.19642840626781   -0.46004310769232
S         -10.24720688459138   -4.48157209108623   -1.79138177344967
C         -12.23323607901406   -6.06447898719213   -0.72058247581298
C         -12.63826174087015   -6.55357362243747   -1.92602483855107
C         -13.77410841692063   -7.39630959532324   -1.84655823633724
C         -14.45282884643384   -8.03118295359183   -2.90512837408905
C         -13.92752076606843   -7.99546242831904   -4.25412845038977
C         -12.62422922323658   -8.12108173243451   -4.64339992420275
C         -12.46561839306380   -8.05235139884979   -6.04400247755496
C         -13.62855568705616   -7.87376767274887   -6.73510506869218
S         -14.96551074188268   -7.79186635174051   -5.63791226610670
C         -13.83015220350924   -7.75144090484109   -8.20084805621982
Cl        -10.92368199863747   -8.18722605329581   -6.80077719342183
C         -15.62360004376437   -8.70398463081832   -2.57531520898594
C         -16.11464370792574   -8.80725179532063   -1.24961079773770
C         -15.42150150597034   -8.19430421249653   -0.18555190633354
C         -14.25672973536485   -7.50960934873794   -0.51995609220919
S         -13.24900911472118   -6.62324055460452    0.59306442053517
C         -15.90117144601687   -8.22540565863055    1.18120866990940
C         -15.16528221121168   -8.30206642251029    2.32958225864856
C         -15.95922169647296   -8.23114409219872    3.49442706915928
C         -17.29601871972301   -8.09021873634240    3.26070267300499
S         -17.59565250192294   -8.04901830382357    1.55747117664071
C         -18.40502309670654   -7.96682155595467    4.24075934969691
Cl        -15.28488157598504   -8.31672227237599    5.07646093187556
C         -17.28831270619952   -9.59581184396678   -1.18763663244661
C         -17.70180900221638  -10.05953286222780   -2.40281865525014
S         -16.64459660206782   -9.55524605324614   -3.69869729826086
C         -18.85825722602386  -10.85257035688983   -2.67166804241043
C         -19.65145227151472  -11.48482910183154   -1.75954302553509
C         -20.74636571782707  -12.17316365054380   -2.33615206851143
C         -21.75291349141783  -12.90874652132515   -1.67982825687069
C         -21.82705229728044  -13.00384388753435   -0.23589132334121
C         -22.19805341152254  -14.08000542297707    0.51828294547046
C         -22.20133845100441  -13.80482186918469    1.90293609444203
C         -21.85210305430468  -12.52695245921798    2.22797341822489
S         -21.49766821374683  -11.63087846224360    0.79000898003842
C         -21.74097196722915  -11.90112454302011    3.57007019687280
Cl        -22.61475050882074  -14.99708712810468    3.07396561058625
C         -22.69562652122704  -13.53698717971417   -2.49256487498190
C         -22.69473194168566  -13.41999733660436   -3.90601344103017
C         -21.71668708343532  -12.64211572595515   -4.55772107113132
C         -20.74488740647845  -12.06497041776097   -3.74989903914957
S         -19.41700525016466  -11.08815616034135   -4.31064934729817
C         -21.75511840738018  -12.44318355561012   -5.99225010971177
C         -22.85034655516224  -12.21403855796350   -6.77523072349281
C         -22.52134052076686  -12.06389057117634   -8.13957833476978
C         -21.19028356007395  -12.17894224304782   -8.41597778174838
S         -20.30459026065500  -12.47049357463618   -6.95695634907729
C         -20.49928450363334  -12.07359598045356   -9.72599256291904
Cl        -23.71620116951047  -11.76245381943972   -9.34399095151554
C         -23.74626661600872  -14.16573962628845   -4.49363543912090
C         -24.53588817042140  -14.79119529783578   -3.57899504966660
S         -24.02831732603950  -14.51541152963844   -1.93922975557097
C         -25.68626665412605  -15.62569662037347   -3.83383252737136
N         -26.28889098960214  -16.16142296018028   -2.77209779194698
C         -27.34127366233438  -16.92247527825555   -3.00790440065383
C         -27.81032377525551  -17.16133695045992   -4.28888987450413
C         -27.11369820802364  -16.55462562128880   -5.34133299835817
N         -26.05238835263395  -15.78942546394960   -5.09935632859926
C         -27.52673902399763  -16.73790747360765   -6.72757198769073
C         -26.89537610330299  -16.17457292203834   -7.75012519381409
H          -0.77229211486870    2.51193612522415    0.97326996770749
H          -1.08909903467666    2.59392790437208    5.04645921990191
H          -3.12284471499664    1.10347074279967    4.92484391362511
H          -4.67343710845444   -0.16741744504051    3.48295333336920
H          -4.09046304261635    0.14727428052350    0.49612298489033
H          -5.79601045654610   -1.11290565739843   -0.99626976091834
H          -8.14878588863898   -4.41383535291721   -3.44043297094923
H          -7.13704593862997   -0.88847979148361   -6.66231847781105
H          -6.18672651389728    0.08830487534820   -5.52907492592664
H          -7.91134748078186    0.39465776342926   -5.71778852271007
H         -11.30876606608046   -3.38558493595235    3.10858180289065
H          -9.65516879472873   -4.63277804359628    7.53500820205939
H          -8.16043251319042   -3.69693980989422    7.37100967252523
H          -8.17241309020573   -5.40741573871922    6.94888259121094
H         -11.03127276137985   -5.19228548241238    1.67718033256734
H         -12.15057348455852   -6.29036728733455   -2.84672495230962
H         -11.80859373070872   -8.30183134067965   -3.96807736374038
H         -14.14197033755918   -6.74022292182829   -8.46271493113061
H         -14.60351670575167   -8.43941441772405   -8.53857508604172
H         -12.90082742100044   -7.97569617305229   -8.71873118165852
H         -14.10064594080303   -8.44056292662413    2.35690352804353
H         -18.10181166510677   -8.39036507987730    5.19567692308599
H         -19.29305428263392   -8.48178396700433    3.88043157156246
H         -18.66260903795314   -6.91830914409924    4.39690222781099
H         -17.81431601675898   -9.81264883460786   -0.27793587597013
H         -19.44123395711848  -11.47511318392725   -0.70748906847965
H         -22.42913409129053  -15.04769386410993    0.11494284762664
H         -22.10357793307683  -12.59260146335416    4.32643367667000
H         -22.32549503202965  -10.98332142478484    3.61588712719327
H         -20.70311709020793  -11.65132085973750    3.79167175360750
H         -23.85016144704762  -12.11081612778451   -6.39640625504572
H         -21.23343416811062  -12.04225371604280  -10.52736803023169
H         -19.83747676507684  -12.92428334926434   -9.87994885126026
H         -19.89560998819615  -11.16677581517089   -9.76748469895819
H         -23.90719857934421  -14.26591199511303   -5.54997525173814
H         -27.81841613043744  -17.35090725106651   -2.13539412511449
H         -28.67153189140449  -17.78383968226761   -4.46993904108207
H         -28.39272711091530  -17.36886042513997   -6.87695981006030
H         -26.03605916149810  -15.54927925076507   -7.57871707034308
H         -27.21286470076058  -16.31796297834688   -8.76847142397208
