82
 SCF done       -155.578158411255          0.000597737971
C          -2.22344021463184    1.65033672738651   -4.88023932695306
N          -1.51966426282859    2.67668899947498   -4.43257918460465
C          -1.64336892638731    2.95200751101819   -3.14096762809053
C          -2.45943485795312    2.21469421593481   -2.30344622660251
C          -3.16230329389840    1.14694238445747   -2.87928668707648
N          -3.02814140944501    0.87835663039774   -4.18528505901297
C          -4.04030349910632    0.31410693370940   -2.09256110007035
C          -4.71055373993642   -0.72622985803922   -2.62797711936171
C          -5.58982016075703   -1.59288998866046   -1.92344699943413
C          -5.96850086654210   -1.57449120002394   -0.59433031925917
C          -6.85559514082991   -2.60517462315883   -0.28120000694741
C          -7.15777600760870   -3.42300309468561   -1.38890045643159
S          -6.35186392351126   -2.91637341583362   -2.80260034061019
C          -8.05645385804345   -4.43393496644138   -0.97162121751206
C          -8.32460416200246   -4.25514887958039    0.39592056792523
C          -7.58019190130335   -3.09771350907417    0.87305460972282
C          -7.57829467177410   -2.59116113065107    2.14217195402600
C          -8.34912262597255   -3.16331040543246    3.17422912110974
N          -8.98402875365771   -3.62958351324124    4.00878029576174
C          -6.81066942770161   -1.46344992034543    2.49717187338787
N          -6.18485230049866   -0.54718723919825    2.78812230485650
C          -9.19947274911478   -5.20487499104611    0.91266384388173
C          -9.60682833572877   -6.11864467241791   -0.04809575016587
S          -8.89026320938654   -5.78083300609160   -1.61813413802417
C         -10.49277277806419   -7.22167622540669    0.11861084762647
C         -11.03576809977970   -7.55578370149293    1.33807343576786
C         -11.90545816027048   -8.61982345276651    1.56281398530879
C         -12.22612220100370   -9.56693902969056    0.48448377792302
C         -11.81609129603061   -9.42766851287705   -0.79409953263202
S         -10.84730261667837   -8.12458803041838   -1.34925231521836
C         -13.00620912441880  -10.58719510797475    1.09480362674323
C         -13.17069617143310  -10.30183657970086    2.45017189670001
C         -13.94360813823295  -11.28184773942464    3.11132935106845
C         -14.33372065300616  -12.26549142944587    2.25959280608459
S         -13.78897698601210  -12.04425972835893    0.62991867720253
C         -12.51362562925522   -9.05775037967573    2.75699815014020
C         -12.55295430288068   -8.46911145060373    4.04401350374463
C         -12.30574714769168   -7.16879023767512    4.35609472013352
C         -12.35271758211944   -6.63319342388767    5.66607400531533
C         -12.56955579550049   -7.27753752606923    6.87678136134552
C         -12.55644136978192   -6.39261097926616    7.94979331077869
C         -12.32549220156484   -5.06012675983916    7.56540002823100
S         -12.11730130551839   -4.90292587101075    5.87988100669706
C         -12.35152717137799   -4.24426284673106    8.72567875122928
C         -12.59451323902147   -5.06534446360895    9.84468787867812
C         -12.72849829123122   -6.43736800099961    9.39728690839488
C         -12.97200278423082   -7.54519907547913   10.15670064198704
C         -13.12364630830744   -7.48847444790147   11.55780139813029
N         -13.25046401542824   -7.46381093062396   12.69712866869135
C         -13.09391484203781   -8.82881945927193    9.58659961199410
N         -13.19862436757636   -9.87438079425734    9.12608578835155
C         -12.65328008402438   -4.34100536261255   11.03927718309869
C         -12.46114547317053   -2.99670248639120   10.82171606626543
S         -12.19877979550277   -2.59752570673745    9.14066362015036
C         -12.46393719543792   -1.91936019541846   11.77414890082368
N         -12.64682465715497   -2.21786553121090   13.06204716135492
C         -12.64601706896931   -1.20099860215798   13.90407030957991
C         -12.46900885400974    0.11035267490711   13.49294447031193
C         -12.28787250993069    0.32544294665084   12.12125781728750
N         -12.28663089463292   -0.70034791916919   11.27567797394657
C         -12.10061621161097    1.66527896936949   11.57892430601553
C         -11.94222717924752    1.90285912379108   10.28268895220708
H          -2.12612562908358    1.42135767132150   -5.93458279161221
H          -1.06459402770734    3.79250311011505   -2.77881382116244
H          -2.55422269819812    2.44523181497093   -1.25429115846375
H          -4.13211690434131    0.56605701052880   -1.04613005504861
H          -4.56906731652313   -0.92356148455102   -3.68213364476013
H          -5.61345447898054   -0.84362033840736    0.10839688177310
H          -9.52355341917615   -5.22809528557004    1.93603186097508
H         -10.72876135753634   -6.96374343410702    2.18510529007568
H         -12.07819638166659  -10.13015841207227   -1.56932221764877
H         -14.19775503405846  -11.26781940103042    4.15552329475963
H         -14.92351674495860  -13.13273494373252    2.48351513891625
H         -12.86268430631613   -9.13514833627315    4.83839378525323
H         -12.10260371180360   -6.45295225143189    3.57371661055353
H         -12.72662299618538   -8.33657532039922    6.96122652041221
H         -12.82787264157590   -4.74532529613076   12.01923269764097
H         -12.79491834742181   -1.45585044198264   14.94588513253281
H         -12.47195865885983    0.92914825444629   14.19387359237875
H         -12.10017892923279    2.46709118944330   12.30512621284707
H         -11.94431327637558    1.08975767207661    9.57687479602866
H         -11.80549233456729    2.89835750231521    9.89705981579187
