110
 SCF done       -199.979038623090          0.000569884395
C           8.86688425211319    6.44284631948452   -2.32474254128063
C           8.68279419663416    5.02990540938625   -1.88059320471771
N           7.65287910347777    4.76234936229187   -1.12395025568799
C           7.44228067295599    3.50432173905144   -0.68329718753324
C           6.30745960121928    3.23017451792594    0.12825648115310
C           5.28362961347669    4.14695992788081    0.47906526215821
C           5.10369071790011    5.39723456032679   -0.02632041523637
C           4.05071736717109    6.25848143036424    0.33960731822123
C           3.75900344067738    7.49257030378481   -0.23577482411568
C           2.64423498206435    8.09135088211592    0.32256272286123
C           2.07665421935797    7.32671762327527    1.34763093825268
S           2.90954176450939    5.85367422081986    1.61590163279658
C           0.95152314357965    8.01012667371974    1.85848471851788
S          -0.24120036786122    7.78913881936305    3.07164501625143
C          -0.98606758832794    9.30824069508208    2.62420112255310
C          -2.14949708434887    9.76973314939374    3.30007065331503
C          -2.95643004255968   10.81730092969227    2.95116876129118
C          -4.04513878304689   11.01587957391821    3.83231988287257
C          -5.03637202462231   12.01577998796636    3.77106803003892
C          -5.10272445719150   12.92975291851045    2.64814962844767
C          -4.95669092317042   12.63558893914780    1.32310189563539
C          -5.07725424417167   13.77385939756370    0.49649760220424
Cl         -4.93878866755581   13.68012707575702   -1.21940871943792
C          -5.30845800485252   14.93801031159994    1.16867648611175
C          -5.48502847420500   16.30826575640168    0.62483363702311
S          -5.39196679864005   14.63299402649273    2.87166564758610
C          -5.94035307065570   12.06062359429596    4.82537889905803
S          -7.25986229384493   13.18547952104409    4.96606853024390
C          -7.78740146805323   12.43501145074008    6.46003771700991
C          -8.92621647467562   12.91038477400794    7.17218026353834
C          -9.68697436802898   13.95371293607392    6.79490504143387
C         -10.83075393409583   14.40183544587275    7.55464763026454
C         -11.60370947393123   15.49318515568516    7.13539001835988
C         -12.67694041884478   15.84428230414994    7.93315330274212
N         -12.97536079483546   15.18949708025534    9.04719414847926
C         -12.18602688554666   14.17452391145040    9.35675855830338
N         -11.14252679547807   13.74800251477354    8.68139688245010
C          -6.98295970109439   11.38817975198507    6.81283990834039
C          -5.91816783216376   11.14938098104692    5.91171896599550
C          -4.94013117982933   10.13432829583243    5.96191164470281
C          -4.84005305524080    9.19363091543953    7.05918244318339
C          -4.50478710849910    7.87105783467350    7.00076218696592
C          -4.42771936463861    7.26946197389247    8.27542899561766
Cl         -4.03619888334733    5.60522990232568    8.48138314321436
C          -4.68572644258688    8.11302774417684    9.31618123825999
C          -4.68544183066840    7.82554916692596   10.77255198801313
S          -5.04819359561712    9.69561534931269    8.71635131412569
C          -4.03532662353218   10.09186172754739    4.90630889794313
S          -2.70883415331177    8.97219493292975    4.75573017160684
C          -0.31555214471915    9.93349344563402    1.58486163209765
C           0.78407022445165    9.20414368278002    1.15538394413058
C           1.86306141517852    9.36735234463739    0.11074526540510
C           1.27096671895807    9.43078659303293   -1.29969224080524
C           2.72579622025189   10.60073653721777    0.39271516412950
C           6.20864500077035    1.90298147396767    0.60905544315861
N           5.27845588464976    1.44590211212143    1.45021747733289
S           5.55574567758821   -0.11032482701354    1.73645585643199
N           6.85404242589700   -0.29539137672757    0.81473832503212
C           7.13316580018213    0.86817021777411    0.22204866965570
C           8.21657982565832    1.13398422153305   -0.63509768209469
C           9.09918471192183    0.09916260608870   -1.06518315785528
C          10.53975865436733    0.24195105210287   -1.29311053949972
N          11.14387678361615   -0.85896851098561   -1.63200875821687
C          10.16951545642535   -1.81264447692124   -1.68048711614352
C           9.98678564369526   -3.12888570925396   -2.00115592198046
N          10.65522215745804   -4.23199558164867   -2.43380561861359
C           9.73895744165990   -5.15575173848744   -2.57091400748101
C           8.39437303120897   -4.71806397053273   -2.24566193932723
C           8.54042377921145   -3.42433558271582   -1.86160194613716
C           7.83184743126717   -2.22512342156614   -1.45741614155321
S           6.20273480414015   -2.04033815068597   -1.36732754406359
C           8.86025436062183   -1.23762856139235   -1.30191178407497
C           8.37636882561224    2.47982637558312   -1.04113390290715
N           9.42444505644306    2.77880005913452   -1.83879162793881
C           9.59675020511157    4.00188212523034   -2.25765881731592
C          10.78039304809690    4.27676394550905   -3.12228010612589
H           8.09638679121665    7.06759741524355   -1.88180108294101
H           8.80338332983670    6.50872193686351   -3.41022208474364
H           9.84585797828990    6.81135185434145   -2.02285960271587
H           4.56509379280540    3.76083326735497    1.19270394587951
H           5.79411791947180    5.76458052956774   -0.77170917754222
H           4.34977957692097    7.90284414839235   -1.03487928799688
H          -2.76948608897976   11.44136092555875    2.09804077915519
H          -4.81270450602920   11.64222843354355    0.93991019109684
H          -4.77468369627803   16.99688971417130    1.08042596668856
H          -6.48928821461482   16.67623196769720    0.83367498541175
H          -5.33059004381839   16.29899972025220   -0.45132597133117
H          -9.18207106693766   12.38533309669148    8.08250076771835
H          -9.45794142634442   14.50240246007911    5.89075204212426
H         -11.36695280899817   16.03071992564110    6.23101823010649
H         -13.32599674479332   16.67460716905398    7.68421842072840
H         -12.42626822681172   13.63599460420619   10.26546608596093
H          -7.16426932278862   10.79985959038417    7.69311129453361
H          -4.35112084895103    7.32555369565152    6.08848624710701
H          -4.47277929136560    6.77218452039382   10.93664686575906
H          -5.65279399272772    8.06562856446402   11.21237568366439
H          -3.92885388003422    8.42227597914650   11.28161502892869
H          -0.62266063556063   10.88061198674843    1.18133220638723
H           2.06786431584616    9.46868445293526   -2.03816227043103
H           0.65168036367815   10.31801116788954   -1.40533114293132
H           0.65866540972859    8.55278937691387   -1.49215455342692
H           3.14259922840459   10.54848089293740    1.39596332366526
H           2.12578884662111   11.50355255422448    0.31081717999127
H           3.54294191289283   10.65560896243642   -0.32220904605842
H          11.08760092175790    1.15751490656726   -1.16450066416594
H          10.00916409260257   -6.14419725412209   -2.90051750869919
H           7.50949516350430   -5.32071631369142   -2.30409599251214
H          11.31348654834502    3.34909113133146   -3.31000732028793
H          11.44952166997711    4.98412710385472   -2.63361082858649
H          10.46622462728547    4.71132481308106   -4.06987781488932
