86
 SCF done       -144.403805663654          0.000560536966
C          -0.73678055790603   -3.53448079968614   -6.31721510708044
N           0.00609708430171   -2.71983367133118   -5.58681305108022
C          -0.42163462423438   -2.49063773297684   -4.35133110887499
C          -1.57395617561841   -3.06422505078413   -3.85016882430427
C          -2.28838733156862   -3.91401259691989   -4.70801850966367
N          -1.84561304403565   -4.13817228905145   -5.95389461739651
C          -3.50113309434111   -4.56517361816003   -4.28279595808134
C          -4.19629941483119   -5.40027586587027   -5.08214168833127
C          -5.38893987880243   -6.07880053487879   -4.72470388126025
S          -6.12803163051096   -5.87813357054432   -3.14391713262125
C          -7.37158221663709   -6.97439599363814   -3.57739914654422
C          -7.22598575638809   -7.46911080935858   -4.87319968895219
C          -6.10715974180489   -6.96003789695509   -5.51815188679046
C          -8.33835392276050   -8.43725082912609   -5.20416555627784
C          -9.18780455543990   -7.93121286056484   -6.37330170383022
C          -7.78879736343652   -9.83547600344994   -5.49931283673118
C          -9.11667975519049   -8.41433703229386   -3.90881045831130
C          -8.52350278181116   -7.54796663186706   -2.98997274430854
S          -9.36412961465280   -7.48431365686531   -1.49737720637869
C         -10.53337278904504   -8.64416054986576   -2.10191189880132
C         -10.25126062966502   -9.03294784618240   -3.40370134702895
C         -11.60791245662742   -9.10051336892837   -1.29881474181070
C         -11.85381349743375   -8.68825083679095   -0.03460398703301
C         -12.91349154505333   -9.17460408018487    0.77600569252617
C         -13.25342145888874   -8.76049422626923    2.05411459101322
C         -12.56905104732098   -7.62066975498336    2.70281118952646
O         -11.38912853441007   -7.40630378144753    2.62835562910884
O         -13.37261982887733   -6.76432089277810    3.36796040640140
C         -14.36972816706826   -9.47885646646204    2.59186005952552
C         -14.86814633292742  -10.38385127162375    1.69273460677857
S         -14.01231222081030  -10.40480019087396    0.21095704729825
C         -14.86992671858251   -9.36339258219409    3.94150765734589
S         -16.53627504623699   -9.78585830749301    4.29331039653980
C         -16.27431920867028   -9.45087596256185    5.95676512071192
C         -14.97172513889124   -9.04805286547434    6.21992765216372
C         -14.17464412978106   -9.00487390246662    5.07663384785371
C         -14.78767430205600   -8.74827933274693    7.68817745475089
C         -13.73147479227714   -9.65719312907687    8.32098112670458
C         -14.43183662089146   -7.27382500610566    7.90207954526368
C         -16.17279595159872   -9.06009827043947    8.20626739217391
C         -17.00956275987727   -9.46447034722183    7.16922547578274
S         -18.59664264852965   -9.83330454240618    7.70201086854197
C         -18.14190386001107   -9.43927451086417    9.35077595319936
C         -16.81765208042534   -9.04515931029920    9.43767567950060
C         -19.06867555860730   -9.53951951880580   10.42254662705475
C         -20.34508932685840   -9.95360069031109   10.31304650045267
C         -21.23846504101863  -10.04250924475472   11.44376870121583
N         -20.78511126254806   -9.66910896832947   12.64688758842326
C         -21.62674210014753   -9.76309475394133   13.65706347367939
C         -22.92450604012836  -10.22590089272603   13.50924815626393
C         -23.31318813346047  -10.59769799487012   12.21746228523247
N         -22.46371803388741  -10.49884613527572   11.19926818136535
C         -24.65455509890762  -11.10503855094570   11.95062101998063
C         -25.05358937294085  -11.49471997710821   10.74668886678557
H          -0.39259629511493   -3.72505570776487   -7.32682669865905
H           0.18969692809928   -1.82368709269350   -3.75603089987412
H          -1.91431385385164   -2.87265182624025   -2.84493783155790
H          -3.83857031566047   -4.35857123835247   -3.27581920354764
H          -3.81944661225994   -5.57935331017159   -6.08044541423397
H          -5.80364361197637   -7.20578631874330   -6.51991302344489
H          -8.58714796530499   -7.88312251006475   -7.27825316271251
H          -9.57353034140129   -6.93743736527380   -6.15733683789326
H         -10.02666551792862   -8.60164699675699   -6.54336664864435
H          -7.16718743197993   -9.81216684261247   -6.39095618334868
H          -8.60750300176489  -10.53266548900390   -5.65965085122438
H          -7.18806715190929  -10.18878436155960   -4.66427831009741
H         -10.86149666831006   -9.73946998617869   -3.93738238148622
H         -12.25708847813957   -9.83798435597887   -1.75649575990555
H         -11.20715167975709   -7.95674803068797    0.43092971190215
H         -14.29510871232227   -7.05447028793021    3.37884533705812
H         -15.68787133618159  -11.05786095516944    1.84424798804041
H         -13.13092536550419   -8.74638315638156    5.06948981377628
H         -12.75880000082626   -9.46501523565018    7.87498249961043
H         -13.98821777728062  -10.70239887738001    8.16353716460645
H         -13.67082834536643   -9.47029787448281    9.39019199302168
H         -13.47770791457865   -7.04808029657987    7.43247563334404
H         -14.36208114574603   -7.05696602654493    8.96498379713685
H         -15.19502246051666   -6.63364762201935    7.46514010756542
H         -16.36245089742044   -8.76529309262631   10.37063690311637
H         -18.70140937734677   -9.26049008414414   11.40130460962610
H         -20.76452948458069  -10.24874852693378    9.36196776530881
H         -21.24137518021930   -9.45494082093381   14.62176707978958
H         -23.60103736467149  -10.29792690593630   14.34552430215336
H         -25.31572335496397  -11.14895812783882   12.80608592837212
H         -24.37839786069966  -11.44279051950392    9.90993674933704
H         -26.04683531440370  -11.86836465074793   10.56571011118292
