96
 SCF done       -198.598751929324          0.000591775895
C          -2.17289235747951  -13.42923034827244   -0.57210053364876
C          -2.91270018376707  -13.24361865165664    0.55843115293797
S          -2.31653086074648  -11.99210417266802    1.58805762335445
C          -1.02708399532044  -11.70735102105108    0.49833064947499
C          -1.08305742579211  -12.54354676690907   -0.61006113048623
C           0.03153454172956  -12.21871463771963   -1.50737890609105
O           0.29811162922337  -12.68197035582594   -2.59155629144626
C           0.82865365699082  -11.18741291007820   -0.76534709278685
C           0.06342654779459  -10.77219932695127    0.40059210265900
C           0.15731404103007   -9.62006972986284    1.14037032271917
C          -0.75542418221583   -9.35293784787375    2.18329797305244
N          -1.49649311593587   -9.12814405448695    3.02942008739187
C           1.05707890842466   -8.56795651379698    0.89673916959688
N           1.74299881850573   -7.66345350873785    0.72214389943995
C           2.07544678669682  -10.88338835577249   -1.21353738313584
C           3.13195554731348  -10.23933435098337   -0.53030521368058
C           3.34708064736114  -10.13028566970893    0.83447057791229
C           4.51512980332411   -9.43785440599724    1.12965276832226
C           5.20751288804095   -9.01414919179191   -0.02174462152295
S           4.43417904473364   -9.49841306260726   -1.45702081198784
C           6.34668308252935   -8.27744553805488    0.38873673982714
C           6.37389863297275   -8.23328489242336    1.79293500098219
C           5.22106543896129   -8.95832402443929    2.30472694580558
C           4.84800048509874   -9.12506705051520    3.60580335162770
C           3.67499265337133   -9.83071057955767    3.94793233157256
N           2.72051986662555  -10.40879171836892    4.21217888485572
C           5.60215730338646   -8.61034450045786    4.68107129765105
N           6.21725191198222   -8.20143066748187    5.55788294800932
C           7.45069847155081   -7.50035656146749    2.29233707952447
C           8.23965633710846   -6.98644320868026    1.28067637034945
S           7.64749696985588   -7.42057008489242   -0.31332055580905
C           9.39182537217146   -6.16493402348369    1.41512501543805
C          10.15157608104146   -5.62484511291276    0.41273214588538
C          11.20154893643689   -4.80969846166696    0.88819662153078
C          11.22817492759993   -4.74687990667837    2.29259285867846
S           9.96387859105254   -5.70069881234614    3.00810042617550
C          12.14808102736395   -3.99792671259635    3.01701191881023
O          11.99850044965370   -4.09382059215949    4.36216112215676
C          12.97302310103670   -3.64021582603774    5.26934958429551
C          13.06588380061980   -3.23830084990919    2.26604308441744
C          13.05082413957748   -3.31815300863824    0.83336188288792
C          12.15259908701544   -4.09691612696778    0.12360157458010
O          12.03406108800235   -4.27476906749840   -1.21394100737801
C          12.93782060279088   -3.67988796829144   -2.11609611132217
S          14.27445425864940   -2.26328364754679    0.14278943934515
C          14.75544039618321   -1.70926754625184    1.72436625099629
C          14.04304949696603   -2.31646569120282    2.71880725298526
C          15.75594861569793   -0.70988800231214    1.85555076361097
C          16.42713759617306   -0.06407825954273    0.83435391406210
C          17.31129402124252    0.89958626286142    1.31802081637382
C          17.31676461605605    0.98180608263341    2.72014632451831
S          16.23427071696481   -0.12901083621557    3.44202137215045
C          18.21834508099593    1.99854585940998    3.11258542912531
C          18.78267364531059    2.57103821879825    1.94991541890282
C          18.24677038331732    1.88221235304189    0.78788490719524
C          18.55792708963673    2.08646841406741   -0.52361615876430
C          17.95169185046659    1.33783239194955   -1.55540692942430
N          17.45760012663803    0.73018385649777   -2.39302986864713
C          19.51583678929200    3.03041882397082   -0.95459817087125
N          20.30220094968713    3.77037262118980   -1.33847218236896
C          19.65006565104192    3.62056423683362    2.22426186941436
C          19.77000370678902    3.85964966100211    3.58636342098403
S          18.78584102971027    2.73148500281389    4.53529019321363
C          20.52494433399350    4.78586008714982    4.33593144754854
C          21.23561265731697    5.88643683886915    3.95274123329130
C          21.99664839473170    6.70957578595981    4.88963479265830
C          22.26200003217150    6.49707860400438    6.21906962178880
C          23.03081688010976    7.42662028694540    6.95210944955810
N          23.64951611672880    8.18022026348180    7.55690638112781
C          21.85159841645241    5.39414890466977    6.99111897437091
N          21.55894301200112    4.52158437234373    7.67882290177492
C          22.47733346599165    7.83408605316024    4.13711624819430
C          22.08935136607667    7.75345604778821    2.80806921185907
C          22.53995414779404    8.83707399549779    2.03664189137733
C          23.25959321319242    9.71003156871386    2.79843092871808
S          23.40512640165882    9.24015655616569    4.45397387585932
C          21.30121109264559    6.53042757652568    2.60683745448221
O          20.79189953642134    6.15853707482171    1.57267498885353
H          -2.39645218870198  -14.15363234818872   -1.33300530083567
H          -3.79788346664279  -13.77216608807305    0.85426728081355
H           2.29568425681114  -11.23670309922142   -2.21653493985471
H           2.69932287289639  -10.57728656996558    1.56639770457094
H           7.66223936348302   -7.33210083939090    3.33293901689998
H           9.96620223677112   -5.78918188400302   -0.63315401731777
H          13.97727891581634   -3.96091330613493    4.98045273681030
H          12.70983720760835   -4.10049936558805    6.22172662541203
H          12.93933682233198   -2.55257450868664    5.38476997189878
H          13.96871121692593   -3.98286572378433   -1.91693747324224
H          12.86594200310654   -2.58950187527331   -2.10486856793332
H          12.64070121443812   -4.04648264739917   -3.09785933864300
H          14.22088545911660   -2.06359895520934    3.74640340707881
H          16.25889627371993   -0.29237702358767   -0.20270332438629
H          20.16968970201694    4.20515864957352    1.48693452118805
H          20.51020714457471    4.57899859137797    5.40023874521340
H          22.34572365112463    8.96086187979982    0.98750999349825
H          23.72688312985583   10.62233147369276    2.48247564252756
