111
 SCF done       -202.803448146896          0.000492418860
C           6.33877481756518    1.32356317147434   -9.30962998133701
O           6.24051949062627    1.92574758536817   -8.04089223048441
C           6.26005693978996    3.28001846284813   -7.96196185560375
C           6.37314990625782    4.13282570135220   -9.04764767901059
C           6.37132442146104    5.51761901581749   -8.85817641692115
O           6.48570864633539    6.25245406430999   -9.99728095813745
C           6.49169035038982    7.65625588275692   -9.89552988180648
C           6.25965266490033    6.04590365778831   -7.58288206641992
C           6.16143229786035    5.18499445808356   -6.48650767422006
C           6.06725428210849    5.74901915020842   -5.14478338559878
C           5.29762897320099    6.87502937993133   -4.81361956979196
C           5.32745954206926    7.20343736982533   -3.47568620062628
C           4.51345420749921    8.14163972909832   -2.78618871251152
S           3.17215195092076    8.89168781219243   -3.60585951760046
C           2.55123936075163    9.51486479509099   -2.10546900317758
C           1.30168606097971   10.19650541677372   -2.03339602926973
S           0.72295134078707   11.17038603467919   -3.34106900749407
C          -0.70324878153542   11.61607693218463   -2.43904395386976
C          -1.75020209521841   12.40367679237162   -2.97830793189290
C          -1.72694318789574   13.26032834461324   -4.03087458799261
C          -3.00065542280462   13.60463972740029   -4.73817767931456
O          -4.12384118598788   13.41237590089740   -4.33557981824527
C          -2.56252094296158   14.16544350514049   -6.02479871854513
C          -3.14575186133260   14.63031731041612   -7.21576857133361
C          -2.19401659582186   15.07658205687411   -8.08417277738715
S          -0.58134134601439   14.95843335513158   -7.47627631834062
C          -1.17705047608556   14.27274880550341   -6.02499297977971
C          -0.62225948613736   13.85811766969955   -4.76456772353856
C           0.61171485002584   14.21896075035295   -4.28703441331184
C           0.99574202210345   14.09062460430243   -2.93823960492595
N           1.31125719628244   14.05929859280293   -1.83490875011093
C           1.55395039349534   14.85992973227568   -5.11558185337106
N           2.32721728273319   15.36884830123478   -5.79365892816323
C          -0.70803747251742   10.99073098407029   -1.20787668195652
C           0.41600936251917   10.19611720589320   -0.96167257573336
C           0.60312632703658    9.38610497441389    0.24896402706226
C           0.89497063337539    8.03128425794866    0.12660883400586
C           1.12699303576117    7.27402716933679    1.26840287474984
O           1.47154445820359    5.95934904935925    1.26870796428783
C           1.60102580771666    5.28755957889792    0.03699532223753
C           1.03104743082453    7.87475068581707    2.52027245636141
C           0.70408135790475    9.22043361662425    2.64255399785689
O           0.62805619893552    9.69575446222473    3.91297464159303
C           0.29398211963525   11.04972875021903    4.10788953751628
C           0.49209366104105    9.98370712781146    1.49710571344615
C           3.38419812600091    9.19685300581351   -1.05709530300212
C           4.49425547419465    8.42780391146750   -1.42768962962442
C           5.50184110396441    7.95946407512177   -0.46803291890690
C           5.09904547660628    7.21254109581296    0.63753176839071
C           6.05456312268338    6.74981479888904    1.53243088115135
O           5.79381609976477    6.02454927317036    2.64384488072659
C           4.45397377242750    5.68958615436420    2.94289801445876
C           7.40681686461737    7.03572660281044    1.31870370004377
C           7.80068967357345    7.79926319500082    0.23314214610954
O           9.08547394019620    8.13914093378504   -0.05063569819810
C          10.10348605260441    7.69600256119887    0.81398249277807
C           6.83837409616334    8.26796951426005   -0.66291942910868
S           6.36887240516556    6.13066814620873   -2.59626546773613
C           6.67870101912811    5.18541161909548   -4.02922784483530
C           7.54435842131433    4.06713738987540   -3.94816641555539
C           7.75129964718363    3.31266655011700   -2.83466320182789
C           9.00170089936038    2.51432238651168   -2.66004347931471
O           9.80446145052374    2.22503999675413   -3.51607082567680
C           9.05005011097581    2.22461477482912   -1.21596686328865
C           9.92497278855251    1.62265568330140   -0.29580968014449
C           9.40106228594251    1.64358460544244    0.96340614749794
S           7.83981171488153    2.37786658357686    1.06066000812852
C           7.88140758128545    2.68488114089965   -0.62290019227539
C           6.98610438661949    3.24255925416035   -1.59794974476940
C           5.63750312910036    3.41778776769969   -1.41583492309898
C           4.71825268415850    3.71121797660618   -2.44253245220770
N           3.91368300806113    3.90321831480127   -3.23902117208192
C           5.02156042858713    3.25456459347387   -0.16217785450799
N           4.47508664333910    3.14792997841473    0.84232456656583
C           6.15565770760751    3.81262982715993   -6.67482699694654
H           7.28460071116453    1.57374488267386   -9.80011687582437
H           5.50502467298215    1.61381177644197   -9.95650788522780
H           6.29913658642852    0.25062197339283   -9.12932351083126
H           6.45834022946874    3.77329063053157  -10.05927599887197
H           7.33824669396476    8.01252953782973   -9.30005186252570
H           5.55869613968416    8.03185995595156   -9.46361361931673
H           6.58960744773619    8.02454555350090  -10.91539899931256
H           6.27455672096549    7.10951703514779   -7.41148854739501
H           4.69127502117714    7.41044240502930   -5.52286603223276
H          -2.72954070338975   12.23665638847196   -2.53949794513723
H          -4.20114915280592   14.63703844243841   -7.41537060773565
H          -2.34307603584183   15.48640068269644   -9.06405568638378
H          -1.51202815317613   11.10913320155294   -0.50328849468448
H           0.94213930743924    7.59111541687672   -0.85588799379106
H           1.92889626245413    4.27961809680884    0.28631142553304
H           2.35164865670384    5.75692871064374   -0.60839248265316
H           0.64739904584955    5.23849239260969   -0.49678016172213
H           1.20443130599992    7.28728939910962    3.40639433057669
H           0.28285209009293   11.19659147466207    5.18657611498595
H          -0.69554299695629   11.28198643123103    3.70176239850606
H           1.03720965111205   11.71705107414511    3.66027558261193
H           0.26899057843188   11.03664855975419    1.55196043287575
H           3.21005190591463    9.52432768066386   -0.04894711886680
H           4.05360487516772    6.99352049527413    0.77550471074954
H           4.49269874163034    5.16945677868257    3.89808116813733
H           4.03318877333296    5.02153019439128    2.18717131846365
H           3.82855912206057    6.58132665094912    3.03802679652194
H           8.10959824616842    6.64869587139265    2.03757922888288
H          11.03244577216183    8.08246202402465    0.39745312049180
H          10.15047237639928    6.60265297566811    0.85103014425196
H           9.96900375346243    8.08846923079805    1.82686176903395
H           7.15547609614360    8.87064537930087   -1.49858562056773
H           8.15665363831888    3.84230778612358   -4.81491641658014
H          10.87869505465597    1.19805071556529   -0.54890387608700
H           9.84211780453285    1.25613124959730    1.86104652422104
H           6.02764111208469    3.13737530431404   -5.84495117150903
