90
 SCF done       -185.110310082283          0.000842316547
C           0.98540801090178    4.36435916265073    5.30940771342520
C          -0.22447490519568    3.89762730898297    4.88652571430767
S          -0.14563425118528    2.35579698060238    4.11192996557145
C           1.55270356865099    2.32517463246838    4.33538947312204
C           2.01188889346076    3.45698058474260    4.99510921941680
C           3.46145093781593    3.34033256508966    5.17985278752295
O           4.21896538208302    4.09624005641610    5.74235264216872
C           3.83834105817053    2.07261890715714    4.47192304917000
C           2.61896413181498    1.39290008058567    4.06399667797551
C           2.40215043027724    0.09044294490294    3.69333570500704
C           1.09129445648958   -0.36499297809929    3.42771075176124
N           0.03270433635745   -0.74707064456670    3.20428807794364
C           3.33810491965070   -0.95407547383278    3.60473021308016
N           4.00549137721280   -1.88534205817389    3.51593104085935
C           5.15624342221912    1.77908983925425    4.34714441625022
C           5.79735778915310    0.80180674647394    3.54587171443881
C           5.44688566621626    0.29398076868246    2.30800963093242
C           6.34114742416922   -0.67899908102862    1.86322393593859
C           7.37709756462483   -0.92395361068997    2.78842676800001
S           7.29364779799007    0.09410294667763    4.15021084976437
C           8.14541944271271   -2.00948140823362    2.33064794755913
C           7.62280741640528   -2.45024597517250    1.09267268374022
C           6.47243632722670   -1.61443185527764    0.76272828038281
C           5.65505326729264   -1.72220395465201   -0.32503550146317
C           4.54184962644741   -0.87426606530911   -0.49972532693911
N           3.64118289226363   -0.17832330041034   -0.63991882657670
C           5.87401702483373   -2.68006658026224   -1.33580975129070
N           6.06175410879856   -3.45639200324396   -2.15887872818882
C           8.27179309260086   -3.57355095412076    0.60814280444255
C           9.25058290283738   -4.04461254414258    1.49378468470174
S           9.40762767924831   -2.99485830235218    2.89837346325026
C           9.94913238413198   -5.25766951137663    1.39402768227462
C          10.54595872764677   -5.91938230289969    2.44527905387865
C          11.08957095417046   -7.22828862679511    2.46050126986201
C          11.34595948600148   -7.72175238974059    3.71088726097339
C          11.01698790376876   -6.82470864187913    4.74507884114294
S          10.50762788481233   -5.29326502345226    4.07736372528616
C          10.87382721492446   -6.97652520057953    6.11921856021288
C          11.18299483648953   -8.01024651431606    7.01986531657316
C          10.71624377122213   -7.79123212940368    8.28960727717661
C           9.98496762877232   -6.59065377251759    8.44946742153288
S          10.00579004916909   -5.70467127392959    6.94446120768534
C           9.31683387430149   -6.15042239440675    9.57721991623713
C           8.42740263259387   -5.06967838110011    9.62970053052883
C           7.87455093682711   -4.33448961255962    8.57425071685471
C           6.99653806822385   -3.36274018353216    9.00387768312652
C           6.84426279165061   -3.31252914118697   10.40933341146036
S           7.80247521788157   -4.50787710220069   11.18586035595741
C           5.92614052339029   -2.29314420703352   10.71751887522138
C           5.48605513939795   -1.69820158415236    9.50182384439220
C           6.14075429049379   -2.35453358178096    8.39458080322242
C           5.98764393916260   -2.09552664068263    7.06161728992824
C           6.69962130602792   -2.78742419804878    6.06104930694162
N           7.29267112570362   -3.33219215183007    5.24358965892790
C           5.10143513337065   -1.11059823557788    6.58267927247017
N           4.38831695751706   -0.31893466376680    6.15835258752692
C           4.57642337181125   -0.67094404767573    9.68779860681091
C           4.29708175848883   -0.44570495653344   11.02879558833227
S           5.20090856198145   -1.56496481856790   12.07613143708836
C           3.47305710202554    0.49077715839854   11.67654638646117
C           2.65932388014293    1.47730071268370   11.18494095793806
C           1.91656055603440    2.38460032221059   12.05464533268794
C           1.85124307296380    2.43091353997577   13.42554981845163
C           1.05843051761843    3.40549037949634   14.06833816864878
N           0.41715771009770    4.19331060382072   14.60225851052782
C           2.50445311526108    1.57952432359179   14.33569525366846
N           3.00311358999037    0.93117206145396   15.14285063785325
C           1.21122406139218    3.28950000847510   11.18862313107591
C           1.45054679952136    2.99497464497156    9.85652593575241
C           0.77897911195018    3.85361147446222    8.97124676334213
C           0.04894191938172    4.78059700311012    9.65485967389192
S           0.15760245726756    4.62891285106205   11.37247268974222
C           2.35490725282182    1.84099359613547    9.77027984291318
O           2.73492873504782    1.31011705488220    8.74742598917000
H           1.13463629111038    5.30455080011213    5.80862911286683
H          -1.18089602058641    4.37262896343635    4.98855452831775
H           5.81123771292226    2.40006674115012    4.95257105445821
H           4.59292922982979    0.64355085960777    1.75566271532571
H           8.03061532465923   -4.08299002518627   -0.30761005775465
H           9.91353391593600   -5.76408175920991    0.43844383430662
H          11.23009908850625   -7.78689304217892    1.55178502793655
H          11.70388709621751   -8.71679487135075    3.90751007427655
H          11.73113904211216   -8.88573545645809    6.72000546287416
H          10.84510302422652   -8.48111357897908    9.10510948592188
H           9.47822583242460   -6.70242269099408   10.49346781842941
H           8.06945996343033   -4.53370111719049    7.53922933571521
H           4.11939360353521   -0.09500325646685    8.90320511623015
H           3.51036418326277    0.41074801881576   12.75697299724907
H           0.83647173426661    3.78967528284227    7.90034070469243
H          -0.56188816513803    5.56316394999075    9.24872411901851
