126
 SCF done       -255.346744486283          0.000457576542
C          13.94357880637991   -3.65976030643575    4.66489542935324
C          13.85585304038353   -2.37511054722235    5.11293298941977
S          12.34345803157204   -1.61462933625291    4.76767175415580
C          11.80505781895463   -3.03770928017379    3.98340658748317
C          12.76094547976204   -4.04741710574082    4.01203936699945
C          12.21877040481556   -5.24317353885643    3.35381584927252
O          12.71753788466516   -6.33541429937269    3.22510330707897
C          10.89579029964847   -4.79565167146689    2.80518915684535
C          10.58430271314623   -3.49064225553170    3.37536935362796
C           9.35256675480881   -2.91377281771408    3.54036985877844
C           9.21340792564947   -1.65589542983979    4.16145394432460
N           9.09883094472338   -0.62406098684229    4.64954788805961
C           8.13608427599603   -3.54765273114297    3.21637523933097
N           7.12573082141519   -4.06038447518076    3.03230498365811
C          10.28618458656560   -5.51573981555237    1.83506883308168
C           9.27883329107979   -5.09660553775060    0.91998823807441
C           8.42289493807538   -5.91058945645888    0.23081349808978
C           7.55258101096034   -5.22111545744493   -0.64402420833523
C           6.50949996730782   -5.75127764434470   -1.43238455837607
C           6.24206498446464   -7.17067090160656   -1.52612529509389
C           5.02933003975373   -7.79325015276643   -1.61583221930690
C           5.14189539035219   -9.19201146437008   -1.76613968271882
C           6.42573137860338   -9.65443414178151   -1.81018857791593
S           7.53422008124238   -8.33635453491180   -1.64554383052300
C           6.90913415197658  -11.04886657228382   -1.96612100391591
Cl          3.76385747077232  -10.21525825733781   -1.88877247582485
C           5.75142753046737   -4.83217702943108   -2.15043462686566
C           5.98364127399575   -3.43405055166117   -2.12581141185809
C           7.01917651559201   -2.90253621665516   -1.32962514893302
C           7.78574676224033   -3.82315793434934   -0.62366529834413
S           9.09379967423943   -3.41735854414423    0.44645588580746
C           7.25809835880344   -1.48138711051380   -1.19635137612275
C           8.45504539998608   -0.84009170636582   -1.04452606654739
C           8.30892664374483    0.54730635940463   -0.83277851539281
C           7.01582929148128    0.98329923007959   -0.80921264744177
S           5.94003419789685   -0.34665230976175   -1.06589059202219
C           6.50282096556415    2.35807637881363   -0.58570471881013
Cl          9.66038077166341    1.59145633292941   -0.61959080451733
C           5.12155165147612   -2.74137003932281   -3.00661717000003
C           4.25077261957848   -3.55509149513346   -3.67502634600588
S           4.44966473067464   -5.23738090431524   -3.23560238283398
C           3.27944604141290   -3.18095340256211   -4.64321221053885
C           2.37568594263597   -3.99965449362193   -5.28924280815402
C           1.59232758456208   -3.29337768697852   -6.20451872792000
C           1.90950198677512   -1.92704349575392   -6.25312607792027
S           3.15783668043085   -1.50800376954354   -5.16670879667922
C           1.08945105666783   -1.30611135002430   -7.23224101492867
C           0.25170052038589   -2.28016263107525   -7.79728895185908
C           0.53232775664603   -3.56001266793351   -7.16479123319141
C          -0.06937000295387   -4.75632975557372   -7.42057595381646
C           0.29018891994629   -5.93917119473341   -6.73992064328159
N           0.57886347575543   -6.90300760174225   -6.19039379057493
C          -1.09296231114616   -4.89259811774442   -8.38241685044406
N          -1.92430569543509   -5.00998760815602   -9.16315121138100
C          -0.57642372148696   -1.76884251049075   -8.79843354978237
C          -0.37054594827760   -0.41896565193320   -8.99913650252769
S           0.85837717176471    0.23580231369663   -7.92753472141175
C          -0.99662642430005    0.41724258059831   -9.96286203848973
C          -0.76677064996786    1.74479284144245  -10.19134837230943
C          -1.51442644021714    2.27361549730763  -11.26802641018980
C          -1.51930770140988    3.59775351742363  -11.75195139017906
C          -0.68055438720383    4.64222740369399  -11.20041025974229
C          -0.99948830967471    5.95853770861465  -11.02451318953873
C           0.07615870054087    6.72065660030211  -10.51994614992673
C           1.22483551647341    6.01265798686932  -10.31772988863040
S           0.97918323759085    4.35420206843344  -10.74768308976407
C           2.53814741817320    6.49003682403220   -9.81737708321186
Cl         -0.06699470911391    8.40416935831052  -10.19111925269207
C          -2.36357064078071    3.86004447973921  -12.82732652937470
C          -3.19513852847627    2.87567466023037  -13.42358586498519
C          -3.22341487610693    1.55829620430696  -12.90808195449847
C          -2.35639150216739    1.29298610284777  -11.85593393784483
S          -2.18289002607795   -0.24942697791805  -11.06262223214451
C          -4.12010482822049    0.56452128526614  -13.45488360993904
C          -5.40366505885737    0.73900813466706  -13.89440355010356
C          -5.98657610890304   -0.45873337690306  -14.35681309088612
C          -5.16966869070639   -1.55127150424492  -14.28503443854200
S          -3.63751510684391   -1.10387962588270  -13.61898389760418
C          -5.45061474522729   -2.95096425606485  -14.68997136033608
Cl         -7.59657711496659   -0.52218456063106  -14.95739598346405
C          -3.86981234342018    3.36467936938741  -14.55947486985520
C          -3.61134336163106    4.68338140138270  -14.83512428014495
S          -2.48278123975713    5.37298117005668  -13.67037910732868
C          -4.04395390070092    5.53997371458758  -15.87672535147076
C          -5.00278651775010    5.37821544453955  -16.83136405446753
C          -5.26981297426654    6.37952406131369  -17.86512861982045
C          -4.58839750160141    7.53298619235286  -18.15699032250002
C          -5.01785882050031    8.36729006218671  -19.21199493811001
N          -5.36082046795715    9.05194248279092  -20.06622691566682
C          -3.43365734147413    8.01906686347333  -17.51383979365236
N          -2.48683222789297    8.47687222975500  -17.05235633593824
C          -6.41457503318168    5.91089557145099  -18.59339368163242
C          -6.85711032287089    4.69078411536711  -18.10439158169655
C          -7.97352472235441    4.19304255267735  -18.79662295323890
C          -8.34760195403661    5.04580015403064  -19.79287861559954
S          -7.36218002812010    6.45931088433933  -19.91213349103429
C          -6.00237450128877    4.27740377349289  -16.98528350462751
O          -6.11856344371559    3.26752843620218  -16.32499189790344
H          14.80163107918331   -4.29212564772073    4.79770194909156
H          14.60028306453380   -1.81600894320835    5.64547368251979
H          10.66725706229601   -6.52138694418464    1.68630695467007
H           8.39015569528613   -6.97181789010531    0.39450794072800
H           4.08397161475474   -7.28955627336267   -1.53875289189629
H           6.06062091576848  -11.71778451735874   -2.08475638451739
H           7.48318858663784  -11.35700111137107   -1.09262415613907
H           7.55527208500136  -11.13614350845157   -2.83895335570850
H           9.41296746099774   -1.32008161167002   -1.11957704959239
H           7.29818322646196    3.07954488989324   -0.75750392505390
H           6.15052019152983    2.47084882093380    0.44041524292844
H           5.67053986509295    2.57155193616477   -1.25330951469427
H           5.15039073108106   -1.67843326815245   -3.16229313469395
H           2.30760746878426   -5.05483502358954   -5.09422407318536
H          -1.29051306724848   -2.33623251292042   -9.36780341902578
H          -0.07907362983960    2.31868800596498   -9.59783893708968
H          -1.97215178306339    6.37438949329663  -11.20993500873011
H           2.44716264885408    7.51899053137154   -9.47857231989290
H           3.28825323663958    6.44630253590054  -10.60725609127550
H           2.88413488065712    5.87024046342976   -8.99153490080013
H          -5.93660987980336    1.67078558756920  -13.86318263486505
H          -6.49705635693271   -3.04838365403120  -14.96814628083747
H          -5.23143163700059   -3.63682192592736  -13.87310828305335
H          -4.83230358936087   -3.23576296445775  -15.54131513902567
H          -4.50100427470658    2.76013802804114  -15.18103745233575
H          -3.51227807562994    6.48475749979168  -15.89118151965812
H          -8.46602366387777    3.26495098379559  -18.57316391109140
H          -9.16005451483797    4.92859947389176  -20.48326165859688
