146
 SCF done       -264.831338415849          0.000697939000
C          -0.20629827460758   -3.09157559136802   -6.48644448183228
C          -0.09378592786988   -3.00499174558166   -5.14577201227983
C           1.05747715487505   -2.27411833063348   -4.72939241539582
C           1.48181161022621   -1.98758104506146   -3.41895408427454
C           0.71829232024256   -2.36118520020298   -2.24417906940320
C           1.18369542432148   -2.82809570668304   -1.04796535388115
C           0.16817868992765   -3.02946554673376   -0.09143490405040
C          -1.07362859350056   -2.70561734269729   -0.54098500381942
S          -1.01230808211203   -2.15185629548822   -2.18316656136778
C          -2.37098473141354   -2.77683340720772    0.18057000702089
C           2.68113924978046   -1.29280399890247   -3.29720421964563
C           3.43579102843247   -0.83883413325479   -4.40536208325331
C           2.99206661718254   -1.09624111381911   -5.71636649914119
C           1.82039321918936   -1.83602462581779   -5.83732801399956
S           1.07187824030927   -2.30307349352774   -7.34112308191648
C           3.72478043479537   -0.60084461747119   -6.86423306614880
C           4.27126121122985    0.63776875755926   -7.04757491649403
C           4.92712676179202    0.78047585448850   -8.28702229420230
C           4.89328220736126   -0.34528246184249   -9.05005511593334
S           4.02708570234799   -1.61534588007439   -8.24816282310690
C           5.47912244765293   -0.57011014062606  -10.39734967515164
C           4.61231704089971   -0.16026320102242   -4.00214358905621
C           4.75598987278426   -0.07066034490543   -2.64846288735078
S           3.43266642528318   -0.83583762781836   -1.79077494677435
C           5.81707700945213    0.53696750867757   -1.92131734022422
C           6.04743758890248    0.48305059278232   -0.56301555026828
C           7.19311041462488    1.19551570618547   -0.19757006325886
C           7.82680072398642    1.80625739235157   -1.28899911298928
S           7.02785048824880    1.49139626493501   -2.76556350650171
C           8.96631903588579    2.51014573571999   -0.81647913473052
C           9.05863618552805    2.33157929370832    0.57161953957164
C           7.94775399576039    1.49999604478142    1.00841564453264
C           7.67202575051412    1.09027910557627    2.27967318827537
C           8.48060270075733    1.44754775254276    3.37917911308570
N           9.13019891718248    1.73287173203666    4.28003471723183
C           6.56033861488496    0.27677901124005    2.58412000791258
N           5.66145354166295   -0.38640617858226    2.84261585482100
C          10.15457016662915    2.99263311222616    1.13256414960432
C          10.88279818445324    3.68077883041656    0.18475987887024
S          10.21432320694641    3.50070698866668   -1.43090463027238
C          12.04113614262094    4.47914342201760    0.38972783306238
C          12.66357793459668    5.29278776959026   -0.51328620408901
C          13.78529193074539    5.97414269438677    0.01417890288764
C          14.63076786236182    6.89335627292245   -0.64093552283391
C          14.48913060652071    7.22435745746455   -2.04406488262499
C          14.64508026342598    8.44276281268489   -2.64291377131136
C          14.48934009236704    8.40379586722374   -4.04281731959725
C          14.22897078577722    7.15952806431274   -4.52649371483462
S          14.15685850630713    5.99876280675388   -3.24084680994011
C          14.01192247448576    6.73718684817005   -5.93460583063393
C          15.63104365378693    7.46824282882613    0.13519437186661
C          15.85661205229667    7.13526910358605    1.49302442275813
C          15.03602497119885    6.18582530015418    2.13587197525120
C          13.99643803483485    5.65878489295287    1.37946605852149
S          12.82008788333009    4.50949579668464    1.95685406210881
C          15.28733955777917    5.78178037696807    3.50347259479017
C          16.48898516793748    5.50869596305547    4.09541947971690
C          16.37212207151113    5.13466328614043    5.44855856086925
C          15.08812759641494    5.12599919337967    5.89915422164385
S          13.98297717534172    5.57287809267171    4.64049854216016
C          14.58451430458322    4.79622734621479    7.25732645898655
C          16.93034398977862    7.87005342339726    2.04981739224753
C          17.53330723254282    8.71706173838340    1.16330006638799
S          16.78609178836699    8.65036910590985   -0.41947555339028
C          18.62935119421057    9.59153026114803    1.41004781724921
C          19.43983711366746    9.62294873150846    2.52742464353017
C          20.41776355102007   10.61584323083531    2.43541689943945
C          20.34284268978714   11.34900090961541    1.24091304601541
S          19.08132200048414   10.80732463272153    0.22677145444425
C          21.36522590412353   12.33500380990770    1.25063024657991
C          22.09092703190417   12.21334540667223    2.44557021748352
C          21.52328677755726   11.12779329627039    3.22864047912573
C          21.94271971416368   10.68065682576508    4.44810325229553
C          23.04406482123976   11.24988754660617    5.12002966602783
N          23.94151636668567   11.70515349127274    5.67062132207298
C          21.30416643858395    9.61521101814695    5.11549699567222
N          20.78736491965716    8.74899562174516    5.66160042143225
C          23.11780096642066   13.15294227159860    2.55774535022401
C          23.17312470571381   13.99016363869163    1.46075611119595
S          21.94239140840447   13.60791734640721    0.26982740265532
C          24.07615815958683   15.07068063160161    1.25002542823598
C          25.16012861312079   15.39944078075840    2.01283153991327
C          25.84558217265914   16.55368977114698    1.56221464165498
C          27.01278545458585   17.13242646513471    2.09834811175007
C          27.65543354550472   16.63082679922904    3.29479391219546
C          28.99414023371293   16.52972943859364    3.55268666403553
C          29.28098199164243   16.03606386426631    4.84047782445383
C          28.17104196806086   15.77123642951052    5.58168146279067
S          26.73084922285991   16.12048435037731    4.68402635011570
C          28.08187510850516   15.24835191804668    6.96939524068133
C          27.51845314739939   18.23794529595538    1.41826242502281
C          26.91882238115005   18.78755942862516    0.26138843468760
C          25.75322730820963   18.20887931993496   -0.27426044862562
C          25.24936873803564   17.10243483513927    0.40101171134153
S          23.85023372547175   16.18205814761079   -0.08427014126841
C          25.09506885146339   18.71552473199554   -1.46269399465275
C          23.75360424928562   18.83185988098028   -1.69277282884660
C          23.44562570851631   19.32118770084566   -2.97818709305373
C          24.54282406519306   19.56799805100598   -3.74259536783199
S          25.99787922682251   19.20550503988863   -2.87160973907913
C          24.60791510526758   20.08114632011875   -5.13591203310805
C          27.60591912124756   19.95685070488529   -0.17904477555178
C          28.66650491572134   20.26744194613850    0.59290045315127
S          28.91223939079554   19.16781087717179    1.90315670566392
H          -0.97200646012635   -3.58537027480503   -7.05214454715648
H          -0.79434188960745   -3.45124910756932   -4.46478164257474
H           2.21810492242737   -3.05588031778666   -0.86465844158243
H           0.35760522884236   -3.40026261998382    0.90017536349324
H          -2.21334362183459   -3.14985612328647    1.18965072239755
H          -3.06456087794081   -3.44007488859784   -0.33604624850486
H          -2.83387802186145   -1.79178416655226    0.23829211467639
H           4.16904690090099    1.43680502837487   -6.33484030922949
H           5.40694414734223    1.69100551050070   -8.60028010859351
H           5.99509574158358    0.32628168717155  -10.73293290438817
H           4.70041878836645   -0.81873805542010  -11.11797880628654
H           6.18785105653871   -1.39755735887230  -10.37576933476200
H           5.34387345529118    0.22371638212011   -4.69030606353777
H           5.40654784341168   -0.05576819819815    0.11137085386327
H          10.41737677044621    2.99075108312541    2.17517088606562
H          12.30674446292409    5.41024220334985   -1.52040467237266
H          14.82844873660604    9.35025810925436   -2.09674322903852
H          14.57013317456864    9.27415716427023   -4.66957256153179
H          14.11221830758026    7.59295214953422   -6.59761988634122
H          13.01736404981451    6.30954678015613   -6.05989425509277
H          14.73838926863005    5.97917230819075   -6.22588968638534
H          17.42475204593005    5.52947195965776    3.56565526085922
H          17.21575308655715    4.88080553671718    6.06551414409700
H          15.41358844372249    4.51878082416818    7.90376082188392
H          13.87726144456830    3.96857803726263    7.21383574591846
H          14.06853162013854    5.65092784305537    7.69436447736398
H          17.21913663788464    7.79930278898127    3.08156518979032
H          19.32421147972113    8.95017030201216    3.35660636806319
H          23.78377865425492   13.23783988188242    3.39596812950384
H          25.46969571296633   14.81822339707954    2.86028099708912
H          29.75325997132267   16.76545554019178    2.82903321401944
H          30.28152333389192   15.88242555257895    5.20405605932624
H          29.07866311110919   15.05030027771297    7.35614512161820
H          27.50203010421084   14.32618774930849    6.99627326068481
H          27.58866237254223   15.96920743582431    7.62151844525764
H          23.00653129239895   18.60904614246135   -0.95253332921964
H          22.43954433450205   19.48393203919738   -3.32216014253614
H          23.60342791722272   20.25943137078530   -5.51219155397725
H          25.10568364473139   19.36382182584222   -5.78819130951818
H          25.17013425244632   21.01386811058237   -5.17762751010762
H          27.30500340435244   20.54013938952459   -1.02913559593803
H          29.34476849032110   21.09043381462052    0.48026415462457
