84
 SCF done       -148.006198713090          0.000980887342
C           6.03591739434975   -3.11483548995293    0.92058418410172
C           4.72868867959184   -3.31215960858239    1.35448137821438
N           4.41076680482475   -4.33776623712343    2.11530008885306
C           5.37287350115070   -5.17269621256744    2.51311690767999
C           6.70450588190700   -4.90704219444549    2.13560635452051
N           7.00719595574391   -3.90930653010311    1.34016167881290
C           5.02521466683242   -6.31815910669292    3.31421547318542
C           5.66826708467566   -7.52175290289532    3.32553248820980
C           4.88782902068144   -8.44657348292489    4.11300235078481
C           5.26487985899835   -9.76444733630192    4.39965071166853
N           5.57743711453024  -10.84459789478198    4.63190020829000
C           3.73267348964850   -7.82121455398021    4.52100465022829
C           3.78093679681078   -6.46336841083197    4.08259733385966
C           2.89193576722241   -5.45397213499382    4.38750747213135
C           1.46183569110314   -5.60923169338611    4.75228155433975
C           1.00183026909621   -4.35817007764444    5.11764533522581
C           2.07314636150029   -3.42365910312250    4.99242620310801
C           3.20249820589788   -4.07500121795617    4.52802908614088
C           1.98776694859596   -2.05711718981447    5.29440306764729
N           1.91982621935920   -0.93730935900676    5.53663577129388
C           0.72261659636543   -6.79378526189765    4.57855044322399
C          -0.57377107899184   -6.97012666290354    4.99315778206174
C          -1.31655056592253   -8.14677346946029    4.79433354143170
C          -0.87148397684108   -9.36627544721568    4.31544719367516
C          -1.92067157818593  -10.31481845161940    4.44924414755623
C          -1.85535089572559  -11.65175441306132    4.03328966834121
N          -1.80535625598626  -12.74721561384986    3.69451772315255
C          -3.02208555796745   -9.70892346255008    5.04493519709652
C          -2.72280047662897   -8.34476988418559    5.24203284520737
C          -3.60765429576166   -7.36026614721619    5.65404082319079
C          -4.83946853692919   -7.56816685153754    6.45626980641254
C          -5.51554359031702   -6.36305981389400    6.47857909929613
C          -4.76453873778745   -5.40836462376219    5.73575103250157
C          -3.59663510399943   -5.99954665798044    5.27172353347172
C          -5.15519866722678   -4.08225310779245    5.50663457139624
N          -5.47497796731740   -2.99592291224929    5.31874518601806
C          -5.13411387971003   -8.74208637234879    7.17795482772225
C          -6.30478449926758   -8.96464744290431    7.85229461797759
C          -6.60203804752914  -10.14874460660753    8.55851192186906
C          -5.94179778524427  -11.35710049368691    8.50578732976967
C          -6.70875959695347  -12.32812133244697    9.22202387125551
C          -6.33277454903067  -13.66718656475035    9.40387117272115
N          -6.02518709010377  -14.76246064914766    9.55351630867836
C          -7.86529286989388  -11.74377058281060    9.70176705012604
C          -7.83188696046853  -10.36113162734315    9.37045633907802
C          -8.68587250007523   -9.39348718322407    9.84758512422696
C         -10.03384010208790   -9.60814032871144   10.41171007898775
C         -10.45058420190056   -8.42006321467948   10.93802369220094
C          -9.40789845146437   -7.43593735907544   10.74466814098446
C          -8.37129993936121   -8.00999720902480   10.05418866699598
C          -9.46967359855430   -6.11457847318875   11.20555608329843
N          -9.52544684306928   -5.03162105258997   11.58231339439500
C         -10.80183743314347  -10.80960579194413   10.26935486015228
C         -11.87212147621938  -11.11303520259123   11.02771957124618
C         -12.68571058730936  -12.29801618111005   10.90427358744487
C         -12.47207726566903  -13.33461576713293    9.97643383702365
N         -13.25814650406600  -14.38622874547790    9.91905389940416
C         -14.27267620087006  -14.46218034788615   10.76542877896687
C         -14.49423527490524  -13.45031092288770   11.69489556270671
N         -13.71258284153051  -12.39433907809585   11.75502013409789
H           6.30966752696253   -2.32230263460074    0.24096300699562
H           3.92049682892693   -2.65294959518952    1.07135732191134
H           7.52467282044731   -5.50450402939080    2.50703144850101
H           6.57110242571614   -7.78591700045653    2.80739781408451
H           3.00365359393141   -8.23549129876646    5.19144122711885
H           0.00552520445283   -4.09133112413659    5.41604905636771
H           4.17316886596530   -3.63206974845525    4.42591740691815
H           1.21156772174125   -7.60228699034105    4.05551875460359
H          -1.05118215071220   -6.16954663388086    5.53825579921430
H           0.10262870607071   -9.59937980842819    3.92996311630357
H          -3.97728767595265  -10.17687490993212    5.18697347162251
H          -6.43152383742747   -6.13805278808649    6.99099522442227
H          -2.89084815698746   -5.52997684568470    4.61369592671900
H          -4.36396310305732   -9.49805324286296    7.22040627279843
H          -7.07462000548492   -8.20840039895245    7.81325603618398
H          -5.02991083853628  -11.58218600581151    7.98622672437721
H          -8.58438069082740  -12.22305007090777   10.33763493725227
H         -11.40092148216946   -8.20398366877590   11.38785816548322
H          -7.43043758027930   -7.54120203819429    9.83923983782448
H         -10.48691095193597  -11.48288240647063    9.48425842386267
H         -12.18018715874270  -10.45127482340487   11.82468797819308
H         -11.65449375612033  -13.31739306843351    9.27009113451736
H         -14.90294918779157  -15.33615516679252   10.69504063900206
H         -15.31173364326789  -13.48796565396628   12.40139653219241
