81
 SCF done       -194.003418693376          0.000351462953
C           7.34052218197341    4.75479876713192    0.54596504660378
C           7.62169555631406    6.01638380020807    0.97621898038530
S           9.27014335219541    6.14501595602432    1.46429510951539
C           9.59472585460481    4.49644802482727    1.09253452291892
C           8.47892821924949    3.88608547684665    0.61254669992323
C           8.10901111706154    2.55189817646376    0.15166916967285
O           8.81324411371426    1.56289418134780    0.11518596513219
C           6.65681411806286    2.64999862423463   -0.20887330518720
C           6.20504056128468    4.01955481357552    0.03145250329202
C           4.96776675158133    4.54792850562260   -0.20495912679015
C           4.68814071952305    5.90458265226521    0.06961101495333
N           4.45170788831347    7.00498470839867    0.28974692678033
C           3.86473702214277    3.85018771235356   -0.73900837960908
N           2.93303036492312    3.34514938309239   -1.17870298128665
C           5.89971924899972    1.59670425742151   -0.58752182573001
C           6.48146201718933    0.29367811623292   -0.82809465585619
N           6.01186585138468   -0.75941530610953   -0.19155779459784
N           6.59707839679983   -1.91522334909921   -0.19859313224309
C           7.79304771874362   -2.10248219577119   -0.72473706575723
C           8.35606857449260   -1.08167031765389   -1.53315838479818
C           7.61967559704778    0.13739558613658   -1.66383515491592
N           8.15452210348458    0.96398431315517   -2.55613824639090
S           9.48049729367727    0.27733930887427   -3.14853985136097
N           9.43656094166293   -1.09226038775589   -2.31063316650233
C           8.47988137434197   -3.36685455010110   -0.47596755244476
C           7.63299963282316   -4.55649215852810   -0.55745670294099
C           7.66756571659072   -5.56838889554703    0.40390621904564
C           6.82544421250681   -6.67019057806636    0.33624317387967
C           5.90848750301522   -6.78077093984409   -0.70427939914389
C           5.84389142229576   -5.77899429797833   -1.66824572086505
C           6.69340942266316   -4.68431500401767   -1.58329251978862
F           6.62759145119450   -3.75369060486512   -2.53835894703675
F           4.96978475257848   -5.87761943198453   -2.67056896415822
F           5.10039063119330   -7.83790571606619   -0.77642462406660
F           6.89599223197622   -7.62550461702517    1.26751521715623
F           8.52652370955811   -5.49056028115309    1.42663954259024
C           9.80218508562660   -3.36417069436357   -0.13442798951012
C          10.42137618550696   -2.06623952927000    0.22572547335988
C           9.89352125569708   -1.28020603732410    1.25065723678317
C          10.43452955264292   -0.04173432827177    1.57757566643731
C          11.51474431456436    0.44667854668182    0.85104077612098
C          12.06581461170794   -0.32400082273548   -0.16720996017120
C          11.53100339379285   -1.57392435661827   -0.45889413099184
F          12.08579577507015   -2.29986148532380   -1.43132704306621
F          13.10439142453739    0.14352677265870   -0.86747641666544
F          12.02013122276099    1.65019683804686    1.13006927209961
F           9.92945422392031    0.67354870631458    2.58167172263204
F           8.85738984264914   -1.73042276193233    1.96150526731017
C          10.66218654919477   -4.51948900538051   -0.07851653676521
C          11.78351540396874   -4.56123751514634    0.74399303577440
C          12.65498745080970   -5.64288224110157    0.82743169596024
C          12.50406829369528   -6.80308820993019    0.06877324821592
C          11.37862097144913   -6.78783982213782   -0.81033407426260
C          10.46388254762447   -5.67574246782322   -0.87883667921866
N           9.55476669945782   -5.97790584597228   -1.78497338206014
O           9.87487470647886   -7.19060034217964   -2.24693562854160
N          10.96415328638247   -7.69046355087925   -1.67171314418647
C          13.32018511778097   -7.95568829161313    0.08070853021650
C          14.42445948129359   -8.24518608524231    0.84120182771008
C          15.14724253154625   -9.46798623193490    0.75268420968721
C          16.20089727616994   -9.56785554481065    1.60284169119053
C          16.38448692942163   -8.42747413339219    2.42311396317257
S          15.16130750667270   -7.22441151619887    2.05866215298684
C          17.34609744847187   -8.22179631802484    3.38440973695741
C          18.38034332327202   -9.12393083523263    3.77146940846955
C          19.18212137717441   -8.65952001724966    4.75305237343296
C          18.84396653640313   -7.34508433396941    5.22213798287234
S          17.43817171728815   -6.75078625018384    4.32242373077383
C          19.45296407726398   -6.63473930246155    6.18002475394879
H           6.98119695698637    6.87286551786796    1.04453244694675
H          10.57309560559671    4.08701884119704    1.24882438510625
H           4.82451419167554    1.67553534538547   -0.66876437445477
H          11.97915940627432   -3.71325476177859    1.38447462307015
H          13.48079338790022   -5.56664613112194    1.51577395335450
H          13.01266427466128   -8.72740123533077   -0.61368242288346
H          14.85242803773485  -10.23335010147851    0.05703318229237
H          16.84782153358113  -10.42399681209508    1.66576914466230
H          18.48718917190697  -10.08658561370844    3.30446989944899
H          20.01258455308385   -9.19572881807213    5.17639763045133
H          20.30401970625356   -7.03439821334126    6.70273795624397
H          19.11641942907788   -5.65245473727893    6.45712221443731
