95
 SCF done       -209.725617910143          0.000819295535
C          10.26115271995112    5.27844448048187   -1.66223225305745
C          11.03138176188163    6.34839624468481   -2.00315775593363
S          12.68395349011539    5.88382973906218   -2.17519112102110
C          12.34531358991692    4.23960265758776   -1.78473253931030
C          11.02097738043414    4.07081685078213   -1.53941128285384
C          10.13761135251509    2.95943958523158   -1.17180577970475
O          10.46779589898317    1.81839586171649   -0.94384618589958
C           8.77701484693904    3.57724163730288   -1.05186800005188
C           8.86898756793840    4.99135950670310   -1.38619653247726
C           7.84793402345989    5.89848315590517   -1.49085297858136
C           8.09903614018034    7.23914031756265   -1.85031802857939
N           8.29340060632342    8.33322174399094   -2.13626672018181
C           6.48073407860355    5.62766229053078   -1.28545914528676
N           5.35106831852836    5.47890909884215   -1.14497597648479
C           7.68418486259894    2.96035176728325   -0.52804235057849
C           7.58795429161570    1.55990000765522   -0.25808902510258
N           8.22803146180998    0.68369564297157   -1.02590890120854
N           8.30417036173593   -0.56232552340893   -0.74087069182458
C           7.71199924501947   -1.13282888820597    0.30663265192108
C           6.81376940352514   -0.34532636712574    1.08036894433232
C           6.78171891490201    1.06201164315717    0.80405513257268
N           5.98122182459077    1.71848378237566    1.63628424563272
S           5.31112291012797    0.66382359875837    2.64910932200104
N           6.02536253561172   -0.67381977712621    2.09944156415121
C           8.03972111653477   -2.49672330610782    0.60237100279406
C           7.08623658327055   -3.22113412060619    1.45618985476936
C           7.46724505544217   -3.73847897982708    2.69477778218500
C           6.55107853238288   -4.34752484497300    3.54210209177483
C           5.21564854287489   -4.44225420933417    3.16274968306097
C           4.80980964132085   -3.92633881078934    1.93585657793829
C           5.74107497623951   -3.32132009530754    1.10222482205519
F           5.33467893499377   -2.83406948749506   -0.07239478227669
F           3.52940057274926   -4.01365818442745    1.56833414158465
F           4.32908955767090   -5.02393497245043    3.97195782996705
F           6.94477939989009   -4.83740976070725    4.72071557406383
F           8.74311824421862   -3.65026070841561    3.08120256120012
C           9.21674250474656   -3.04444922661042    0.13313107420546
C          10.23989406960247   -2.12362764335072   -0.42690143614507
C          10.85945699114940   -1.18527690241302    0.40007457915086
C          11.85587826967111   -0.34181231389808   -0.06799848911264
C          12.24690347895168   -0.41728017373536   -1.40134821965903
C          11.65073125256233   -1.35007387771712   -2.24231431263038
C          10.67215975422334   -2.20388571907255   -1.74741928947961
F          10.12967450197051   -3.11419360643417   -2.56326685113165
F          12.03852891749571   -1.43989480327314   -3.51821418973199
F          13.19927249095084    0.39371738603943   -1.86598222471572
F          12.44944497924231    0.52415764658245    0.75314409806781
F          10.48037483162921   -1.09254736129721    1.68092862759934
C           9.56860925765032   -4.41292684993706    0.15959306260691
S           8.41837364404446   -5.68711985997918    0.55009720171715
C           9.62872792162348   -6.87468021075194    0.31197270682478
C          10.86020443621223   -6.31903233970782   -0.07242905759531
C          10.82444384720431   -4.94521669712656   -0.15232278360053
C          11.89048772722994   -7.40463723856347   -0.27896880284079
C          12.35185496220465   -7.45350038457673   -1.73878648810032
C          13.08458275518813   -7.23117544583890    0.66307735196025
C          11.07867484080466   -8.62698319166953    0.08286436571524
C           9.76452678383041   -8.26596275805611    0.42064492441399
S           8.80809501548099   -9.61253462752074    0.88803101177196
C          10.17813836103305  -10.68389748472556    0.63108616676321
C          11.30440941618539   -9.98338407081563    0.18924938223589
C          10.09579325045196  -12.06056832023996    0.89035461422843
C           9.00980355395866  -12.68091608007238    1.44919772240442
C           8.94912392698500  -14.04579275344305    1.73625318543239
C           7.89386424661401  -14.65684744478928    2.37591922023958
C           7.78140495780432  -16.02899192710557    2.70542795581315
C           6.63937913018430  -16.35413570977627    3.37074773327425
C           5.78162591176999  -15.25398676427914    3.60736210415479
S           6.47648374358888  -13.79107625028747    2.93788468031113
C           4.57397693949730  -15.25062212953050    4.27026368160532
C           3.91916705574103  -16.36288909955093    4.87072710063191
C           2.74591010828192  -16.06017071935377    5.46906736189694
C           2.37940018280972  -14.67533868274251    5.38576663901449
S           3.63113252553335  -13.79557464902559    4.49299588563778
C           1.28444345301212  -14.08425599097083    5.88304021140075
H          10.75096453569641    7.37060470869840   -2.16002948090006
H          13.13174291182200    3.51160538379207   -1.76675220549225
H           6.82381836521021    3.54435657078299   -0.22703191231468
H          11.66521377530453   -4.32561302058441   -0.40645152637830
H          12.86264431292274   -6.53025859574243   -1.99960222708034
H          11.49870467295897   -7.57718125533977   -2.40160827173194
H          13.03385488798564   -8.28701687272734   -1.88685327448140
H          13.60988985804621   -6.30789437385799    0.43294853773884
H          13.77357361584435   -8.06430972380807    0.54981175687203
H          12.74892083446787   -7.19315969982049    1.69681676193949
H          12.23647715432935  -10.47713584462613   -0.01874101759832
H          10.97438866373858  -12.64673889786816    0.65320576367762
H           8.14755257256544  -12.07820850686751    1.70888042421786
H           9.78761188910876  -14.67072837050710    1.45729450784550
H           8.55195993079991  -16.73172816977336    2.44116788382744
H           6.39325344698645  -17.34813844574640    3.69806437806748
H           4.34628124051530  -17.34933330992846    4.83809181165006
H           2.11233720402257  -16.76604302971559    5.97592072260139
H           0.54845579292871  -14.65560681553868    6.42075171849406
H           1.10639559176484  -13.03125903424180    5.76388141432844
