99
 SCF done       -219.469227041612          0.000399492415
C           4.69501055970315    0.79730897726629    5.19142689361489
C           4.50835402591323    1.47385040059926    6.35980257572446
S           5.98110785259167    1.58805565062554    7.24514708370331
C           6.86397809108042    0.72813796922676    6.04275717287795
C           6.05104361728411    0.36918787795401    5.01473713397881
C           6.17659782494910   -0.35751323457221    3.75124495005881
O           7.18807495339570   -0.78772990348773    3.23912261199936
C           4.78928042906177   -0.42792890119135    3.20267431419984
C           3.90792398668208    0.37576417543913    4.05285048470164
C           2.59464459128828    0.69802346955231    3.85227922204423
C           1.88402323260808    1.47777978093006    4.79197006428473
N           1.29271330731023    2.10879686519218    5.54493914758292
C           1.81067472480547    0.35110629924795    2.73311240995741
N           1.12395454570598    0.11500515177155    1.84358808561988
C           4.37513283802864   -1.09806582726004    2.10058574191193
C           5.07374542219222   -2.00508300533364    1.22212313025711
C           4.65015129970898   -1.84655493410155   -0.19137859242262
C           4.14905817953076   -2.89899044401746   -0.95565223303499
C           3.77834649762994   -2.72721824399482   -2.28339596810921
C           3.87078370941068   -1.47098941677884   -2.87457745618801
C           4.32604168125146   -0.39336429366440   -2.11993378979050
C           4.70317602400669   -0.58970118964082   -0.79573472312695
F           5.15054997298515    0.45440288070848   -0.09591722330602
F           4.40673852146759    0.81635519572909   -2.66913394063971
F           3.52321566396257   -1.30291318504638   -4.14765352914215
F           3.33875348055799   -3.77196084264846   -2.98985471144472
F           3.99787001089994   -4.11205522359519   -0.41358117245490
C           5.96423853492133   -2.98567280392653    1.55562742945521
C           6.31164874927122   -3.25820489193455    2.95436207596025
C           5.35654315522888   -3.30364228066611    3.96943346527249
C           5.71435789982800   -3.36004096076804    5.30900438377929
C           7.05839050099622   -3.38701780591082    5.66850902271635
C           8.03085034988897   -3.38609548864778    4.67448744734381
C           7.65673889131500   -3.31456508138568    3.33812825274104
F           8.61225514178508   -3.30930712828714    2.41515299891236
F           9.32058597862952   -3.44248978698163    5.00936435410952
F           7.40724995911439   -3.41780101330945    6.95574064723774
F           4.77060189764171   -3.37215428811542    6.25617136244402
F           4.05197819371706   -3.31168426029202    3.66428480893727
C           6.64779908305496   -3.72516218672369    0.50785669869376
S           7.51548623407902   -2.84207242569841   -0.70086401497779
C           7.84151098904339   -4.29287010428607   -1.60775715401788
C           7.24173666793102   -5.39427242148993   -1.00438107334174
C           6.64200255977320   -5.07869750305213    0.23450565477699
C           6.01828037799324   -6.10489113223514    1.14482577693608
N           6.41637126181588   -5.84891599479822    2.52384181877455
C           6.39864878217708   -7.51453498459313    0.67483640251787
C           6.15967728217184   -7.64240179184472   -0.81766522218037
C           7.14423280622293   -6.76990794110962   -1.61295386915591
N           6.75158003197003   -6.66670128099462   -3.01503366545648
C           8.73328609671215   -4.12308302907715   -2.70537043522215
C           9.11392989249270   -5.04447027010477   -3.62025816495393
C          10.08682021112470   -4.80278009509605   -4.63704381021371
C          10.33939913119822   -5.74500871242387   -5.62551574202206
C          11.29967923007005   -5.58196987369653   -6.62487877507453
C          12.15157964887114   -4.48927775140622   -6.69193619393840
C          11.91441408752280   -3.48081025056421   -5.71861676839815
C          10.88263879423427   -3.62246385779833   -4.71901531377353
N          10.88720375786218   -2.51583598127039   -4.00488093191191
O          11.83645658788517   -1.73820630904707   -4.51241539309747
N          12.46834801652057   -2.29722796277553   -5.54454801160422
C          13.14527043782840   -4.37992968734646   -7.71358981941370
C          14.29979448559323   -3.66846964910966   -7.71891148294754
C          14.97291958306157   -3.38530422759384   -9.01974524509829
O          14.74275569424446   -3.90635904899883  -10.08420507057441
C          15.93453726984148   -2.30137386755641   -8.72227169844639
C          15.94914418626198   -2.05321046988383   -7.33680834080919
C          15.05001139210895   -2.99516576509242   -6.67765612651050
C          15.09954089941282   -3.34303309446256   -5.35600428679918
C          14.38982262946590   -4.42916973007471   -4.80501647311173
N          13.85156194746803   -5.31848362784814   -4.31810574829506
C          15.93423460163240   -2.71518163730033   -4.40733305167932
N          16.59211875430735   -2.23985227533565   -3.59652119677357
C          16.75954078360926   -1.05038987974550   -6.82518666138038
C          17.54800370372611   -0.31988971494102   -7.70056933980353
C          17.53065793288430   -0.59110036649973   -9.06331593417516
C          16.72189370882302   -1.58413342403327   -9.59977195274415
Br         18.63912915165282    0.42717516778289  -10.22073029577894
H           3.61465858429919    1.90751521224001    6.76179333459278
H           7.91176907795532    0.54197480485798    6.16955079290136
H           3.35353511262254   -0.92097730031581    1.78365245616271
H           4.92757395096209   -5.98742956062855    1.10372108432712
H           7.41075271165306   -6.02882449561954    2.62960506006830
H           5.92101778610768   -6.47858387278695    3.14559153083007
H           5.80791654545685   -8.25159915100790    1.22282993566714
H           7.45576805748113   -7.69354098475379    0.89315234243141
H           5.13886441704268   -7.32136804496027   -1.04497851410106
H           6.26756692906188   -8.68167969751561   -1.13566902217401
H           8.13990927104926   -7.23748541876900   -1.59304345145597
H           5.87978296025038   -6.15429936590326   -3.09786093308783
H           6.60007564441751   -7.59475006595040   -3.39596069966854
H           9.16893481314373   -3.13366957310434   -2.77122001948134
H           8.64222707338736   -6.01412126465288   -3.63315504143014
H           9.75714346190876   -6.65443543785397   -5.62045118944564
H          11.42063024232831   -6.36882396406177   -7.35511446095889
H          12.92116712008629   -4.89553200660410   -8.64304400080982
H          16.77721733934657   -0.82228440174546   -5.77194900443083
H          18.18242603229675    0.46718911561664   -7.32268982625971
H          16.70350988006875   -1.79349162726570  -10.65810339345568
