99
 SCF done       -222.294394869457          0.000843675668
C           5.83576931168332   -1.02687188010771    7.78671884743917
C           5.45640983094442   -0.51641667559888    8.99153672254587
S           5.14759012640922   -1.77877719602868   10.12254590719024
C           5.53436431207432   -3.00713849621179    8.97695532532288
C           5.87715969886210   -2.45879576597396    7.78321493392851
C           6.29806495844318   -2.93803072413225    6.46329381623191
O           6.53491591243514   -4.08265167964211    6.13779775301809
C           6.41493475338511   -1.70719944774014    5.62745445188380
C           6.23004519752533   -0.53956984510193    6.48273723454970
C           6.41831213904590    0.78431514820420    6.17456627401092
C           6.18263911228462    1.79481702146747    7.13172842192743
N           5.98897833604487    2.62644435666134    7.89750123908916
C           6.88531568954532    1.29347598062502    4.94968286182809
N           7.29302896203399    1.75019632026328    3.97584256161952
C           6.63837637182764   -1.60065056170300    4.28562748487031
C           6.74621181438272   -2.57964865927681    3.26084714528594
C           6.27587799619177   -3.95675371614158    3.48982436209733
C           7.12788263965925   -5.04630404359143    3.31069619721287
C           6.71778369426058   -6.34218592600567    3.59006525209971
C           5.42699878569970   -6.57344015312139    4.05598474673085
C           4.55579293902318   -5.50355897657138    4.23225093270620
C           4.98650752325526   -4.21419008029971    3.95100692026064
F           4.14085100844244   -3.19323332983173    4.13243537228137
F           3.31511356958578   -5.71760782928278    4.67331511713082
F           5.02550976621967   -7.81511636811899    4.32367652778034
F           7.55328011667993   -7.36633040618896    3.40573014162411
F           8.36873334531118   -4.84366977177657    2.85647750450104
C           7.27096546098085   -2.21733247379464    2.03278914259531
C           7.96692580664119   -0.91660371019682    1.89568608539896
C           9.04504533793914   -0.57281697727356    2.71221335189592
C           9.70379952322996    0.64427890176102    2.57902391232232
C           9.28296346715912    1.55840300554128    1.61687328607015
C           8.20510924945761    1.24071685485224    0.79473160999297
C           7.56604619822265    0.01475634742430    0.93717914938818
F           6.52807129893325   -0.26495617240062    0.14239238267066
F           7.79721132789341    2.10232735340487   -0.13574599850589
F           9.91322168073789    2.71807617327533    1.47403892977625
F          10.73846756129460    0.93272158767018    3.36580178703394
F           9.47186269117208   -1.43454112063684    3.63822239909002
C           7.18764907586903   -2.98590968363255    0.84025339743142
S           5.90775529980962   -4.15898369617158    0.56496475569388
C           6.47660902675330   -4.41895637344586   -1.02683518275792
C           7.61633094524022   -3.66146573849591   -1.32642699405005
C           8.00587109845170   -2.84906899503585   -0.27996374161736
C           8.07778887941368   -3.92626115145656   -2.73982300264048
C           8.02381424207178   -2.65015488699669   -3.58537361680376
C           9.48164582013090   -4.53745127531832   -2.76487519128855
C           7.03268536648522   -4.92136002306231   -3.18654585572368
C           6.11867683178670   -5.17974771181316   -2.15777578225140
S           4.88641733186600   -6.27595002012785   -2.62111877227812
C           5.59314589392123   -6.39963471991832   -4.22059793325116
C           6.73764640273802   -5.61780457518273   -4.34555851503591
C           5.00282873050646   -7.18611020741327   -5.23831967556325
C           3.81798204509970   -7.83269080771156   -5.11418388461698
C           3.16017014652158   -8.57300451072475   -6.14125421985847
C           3.69233341016442   -8.92602367205519   -7.37391221602643
C           2.96054398957614   -9.59376357807363   -8.35770905392539
C           1.61709131102934   -9.91963984422464   -8.23180128012490
C           1.04331902573125   -9.63119632649108   -6.96386460453760
C           1.81468778780230   -8.98912708007826   -5.93089974372573
N           1.03926440747245   -8.88595624927331   -4.87206253821510
O          -0.12519450580776   -9.42578254821465   -5.20529884974309
N          -0.14986296462127   -9.88061465119183   -6.46026423555570
C           0.89955170165081  -10.54539090730687   -9.29822773565042
C          -0.43191361068855  -10.54128320411830   -9.55453084567775
C          -0.99570159653838  -11.55953905821462  -10.48856780420782
O          -0.37775919349852  -12.27211157124243  -11.24188365870919
C          -2.45441901499245  -11.53141111959522  -10.24670785515054
C          -2.76250050176471  -10.49125379636641   -9.34945304446152
C          -1.53756955845947   -9.76645038441669   -9.02650617398651
C          -1.48003676257881   -8.48702612423592   -8.54679468830646
C          -0.29640188894457   -7.72352537306337   -8.49057683893963
N           0.63712798965946   -7.05621428928519   -8.45677899086576
C          -2.60955539052657   -7.74899638534360   -8.13355429772053
N          -3.49239447296467   -7.10661822346742   -7.78149389619216
C          -4.07584840309273  -10.29372122351325   -8.94889291831777
C          -5.05992304522724  -11.12638750039223   -9.45862975502089
C          -4.73754672357957  -12.13581460768556  -10.35779725127484
C          -3.42903408136219  -12.35943117207770  -10.76530777700544
Br         -6.12285572248734  -13.23834671653879  -11.04302908987417
H           5.33366106573102    0.50448082610841    9.29334690958390
H           5.48054195178421   -4.04091511796251    9.25390846909683
H           6.72569492709465   -0.58818858920868    3.91543041465516
H           8.85803189457737   -2.19354813126772   -0.29488325400180
H           8.73919625544982   -1.92339729019758   -3.20971485441419
H           7.02947082712982   -2.21173896737117   -3.54683384416315
H           8.26595427458540   -2.87760207290829   -4.62016094905001
H          10.20359784207165   -3.82987596285834   -2.36580716923752
H           9.76128463806819   -4.78542965724934   -3.78547399300643
H           9.51250400054830   -5.44301801790046   -2.16361777269799
H           7.30272690083052   -5.56858790214473   -5.25876956633307
H           5.54651553944412   -7.21333740455221   -6.17298618832572
H           3.27142256732796   -7.75759060124264   -4.18293660495470
H           4.71843287589445   -8.67644164230293   -7.59442697418402
H           3.45234183134937   -9.82230703238673   -9.29218288417017
H           1.49492060331911  -11.15065543112200   -9.97571000468839
H          -4.34075772147555   -9.52078086682011   -8.24599201472244
H          -6.08720750253507  -10.99065189925344   -9.15695831299995
H          -3.17562960796240  -13.14552132123699  -11.45964214222313
