90
 SCF done       -169.075312682234          0.005023307310
C           1.54051313616418   -0.25185391154740   -9.48525038126765
C           0.48957835806233    0.24388851380649  -10.19042561952319
S          -0.08903481556895   -0.91741441668791  -11.33015422592991
C           1.09422353568330   -2.08224081566671  -10.85320570736739
C           1.88429775386889   -1.58846500482134   -9.86895393718391
C           3.02925103662825   -2.04475224227360   -9.06467150116210
O           3.58563589051804   -3.12388755199991   -9.12159817073610
C           3.35342519894512   -0.90056332372234   -8.17956148465092
C           2.44579383666946    0.18534355871226   -8.43684572608854
C           2.39780278399862    1.42895488431600   -7.84455176077838
C           1.43328691317268    2.37976057886110   -8.22763610950468
N           0.65418772791602    3.16860092111321   -8.52975798899708
C           3.25459160783249    1.90357655522087   -6.83692384800287
N           3.92109092602345    2.36429784944800   -6.01951131161895
C           4.38997505707050   -0.88915583960719   -7.25838524152120
C           5.27468591136684   -1.93102882782836   -7.03974926882605
C           6.33353102387051   -1.84771554910174   -6.14097836557058
C           7.31596727137507   -2.81793108148803   -5.89570952805571
C           8.27675546222306   -2.42285495841119   -4.99353492639688
C           8.07213093760718   -1.13360909765531   -4.49243936556982
S           6.63649610652318   -0.42368643403607   -5.17065806143251
C           8.88473811791053   -0.40727871273226   -3.60536957085273
C          10.13522248737986   -0.75087743750204   -3.09564541649614
C          10.70376232481960    0.24370645996440   -2.32183685894081
C           9.90766557376451    1.37799403354771   -2.18926762078712
S           8.41057884577364    1.17584255501988   -3.05795515494803
C          10.22988018944310    2.57901044196090   -1.52858990122901
C           9.35973683879757    3.61328024941477   -1.36003912871034
C           9.69434903845908    4.88060678994036   -0.84709897012751
C           8.82554560923299    5.93860200869076   -0.60917486261980
C           9.45876343146093    7.10564251624207   -0.21738778828209
C          10.84202593616962    6.98861726654742   -0.15327281495570
S          11.34120193419603    5.36687247336869   -0.53982556387165
C          11.78297795957331    8.01751485014974    0.06470872492966
C          11.52844076570125    9.36731668057854    0.27518785161476
C          12.67255054640409   10.14624003276639    0.29464607591606
C          13.84656670754786    9.42534298222860    0.11225301888275
S          13.49456985771785    7.72535252985894   -0.05675803512791
C          15.14514354120652    9.95208317922628   -0.01846758373975
C          16.28557747362005    9.21753054447183   -0.14124573355693
C          17.55195971970412    9.77016219528794   -0.41278543904905
C          18.77458724372525    9.10559474775057   -0.45669482115638
C          19.83742518158088    9.91321942402182   -0.81570795201555
C          19.46588702961332   11.22947264059351   -1.08297951102977
S          17.75672421318350   11.44897734277843   -0.83303357488773
C          20.26537762587164   12.28436478993853   -1.55425535696893
C          21.64838805234505   12.29331762655391   -1.76171117332364
C          22.11444511663041   13.47381089383593   -2.29272759125033
C          21.11206120442986   14.42575826883725   -2.52977034036414
S          19.55573905413603   13.79882267766801   -2.03168395184314
C          21.26399072882539   15.68362415111020   -3.10431723856267
C          20.19704432238383   16.53028803978056   -3.35286004746577
C          20.28597413776524   17.77239870894930   -3.96248126991960
C          21.54891515184119   18.38816267285288   -4.43530513447335
O          22.67429199122143   17.93669675926299   -4.35276398660043
C          21.14469462932909   19.67261927620113   -5.02941479131765
C          21.74344258104530   20.72371488952681   -5.64072767974502
S          20.57541694648848   21.91040950958258   -6.10086885247930
C          19.27028197583228   20.98051717662400   -5.45659224333884
C          19.72368680644473   19.81688904248901   -4.92002726112761
C          19.18109092400461   18.64681420159319   -4.25219564732616
C          17.84318912667466   18.46791609953963   -3.97454181131993
C          16.88934991537399   19.43495590054182   -4.34365722959826
N          16.09792448124848   20.21444744395627   -4.63636042650115
C          17.26875609192856   17.36016865209116   -3.32754418133400
N          16.73067060587247   16.48746898328667   -2.80457143549165
H           0.01294992128992    1.20149273304620  -10.12766447908291
H           1.12450032339099   -3.04181913359073  -11.32882636919007
H           4.53188440028132    0.00968632354622   -6.66997279935028
H           5.16269723713128   -2.84668256366286   -7.60264031013534
H           7.30378649876761   -3.77238122059958   -6.39092668516872
H           9.10831482546354   -3.03399546330731   -4.69219869367697
H          10.61046656002903   -1.69082955472397   -3.30981208165722
H          11.67160888838828    0.16633793849013   -1.85886149901885
H          11.24379538014585    2.67235692425197   -1.15991551258781
H           8.32906986903851    3.48577402688291   -1.66779701919667
H           7.76179827151564    5.84533692369882   -0.73657464531719
H           8.94263922217066    8.02388405440757   -0.00490899402210
H          10.53497742654392    9.76057353562872    0.38967832009410
H          12.67093525443906   11.21378184265994    0.42420815331536
H          15.21387703189077   11.03261818885662   -0.04945824759524
H          16.23705627582271    8.13992970692102   -0.04663443703308
H          18.86517702146807    8.05790417938340   -0.23049201107761
H          20.85107792667087    9.56724903215759   -0.90582541111043
H          22.27347649650682   11.45216234459063   -1.52161203097840
H          23.14622363716430   13.66941895511148   -2.52443253761176
H          22.26078405302445   15.99298883863208   -3.38464156187660
H          19.21344022944442   16.18152537121433   -3.06017729745654
H          22.78154762098238   20.88206694823249   -5.85406137366482
H          18.27110793239792   21.36119470639945   -5.52449166562824
