97
 SCF done       -169.539209369962          0.001114979512
C           6.61782546620401    1.74168464568049  -13.70657382628712
C           6.06295237145019    2.38814949927656  -14.76419510910337
S           5.90842605876343    1.32749270793430  -16.12159663213403
C           6.59813652542604    0.00094244524110  -15.25208824778150
C           6.92306127960080    0.37139309489181  -13.99069448857684
C           7.52194218455995   -0.24755418694684  -12.79450067597013
O           7.90272597278984   -1.39771410711657  -12.67864760016968
C           7.56037216467195    0.83147628606958  -11.78549440730119
C           7.01053526440359    2.03575565836006  -12.33806615953391
C           6.86055329331916    3.27368762283703  -11.74522356307432
C           6.29786288148746    4.35281910306330  -12.44919226390753
N           5.83974780591947    5.24736455760685  -13.00674194549952
C           7.22466372424393    3.61869478861731  -10.43348483034090
N           7.49521162348273    3.98379328277363   -9.37649662441152
C           8.07885202376235    0.69119440331770  -10.50122656880008
C           8.64150978843872   -0.46072008246139   -9.99240095453801
C           9.20973172661166   -0.53512375507716   -8.71950752311637
C           9.87179403105621   -1.62856446574612   -8.15249259975866
C          10.39636127614183   -1.37751161510800   -6.90168690894951
C          10.14912319923480   -0.08323808414587   -6.44644353141505
S           9.22878448624800    0.82058432912412   -7.61543882038528
C          10.60035435440465    0.52370484057670   -5.25814247881987
C          11.49948317664619    0.02684655958954   -4.32113915755866
C          11.81781470102480    0.93849004628808   -3.32763413591199
C          11.16055479266936    2.15553224703319   -3.45079710315140
S          10.11395894855213    2.14289253685950   -4.84572954414563
C          11.33059277365052    3.31288645376405   -2.66147544623980
C          10.57083696490331    4.43342549769714   -2.78280176519965
C          10.82682211713131    5.66778168242984   -2.14959092785581
C          10.04353874854440    6.81036315508101   -2.21047134431853
C          10.62061759404479    7.91897352328786   -1.60887844198875
C          11.87509930135306    7.66620646468800   -1.07520419056743
S          12.30608072399864    5.99155947398561   -1.28413252208342
C          12.79420066164019    8.60524368780389   -0.55300364832816
C          12.64625969948402    9.98244523960562   -0.48571030678349
C          13.80199103017385   10.64260753057036   -0.09522038644140
C          14.86946544589039    9.79786058284984    0.16682826520104
S          14.39429750298862    8.13337240735969   -0.05571308597792
C          16.19695257570348   10.17657541296395    0.45737107372581
C          17.20394570173146    9.33131240802597    0.80121474032853
C          18.55596027248922    9.72232231152956    0.91328563424974
C          19.62158970203905    8.98197352217522    1.40469998951782
C          20.84518992483575    9.62784983451914    1.31394350501521
C          20.76504688196844   10.88071498390287    0.72023857878929
S          19.11251576395831   11.26482722901401    0.31988249486855
C          21.81048414074995   11.76027308577091    0.37981464226050
C          23.16205135379890   11.67339506172970    0.70400100020709
C          23.92502541496916   12.68083966503612    0.15277242839033
C          23.20796449349668   13.57278049832242   -0.65532510247629
S          21.51221838183320   13.13870460463584   -0.64210194104240
C          23.75763033046458   14.69406432508440   -1.27696822940642
C          23.23253805195287   15.56971999969531   -2.21488461710626
S          24.01154020003606   17.13638827932064   -2.34554191176997
C          22.85657552530911   17.73302639750233   -3.48763546618196
C          21.96021817410807   16.71697722977784   -3.85737844383250
C          22.17275954526543   15.49410908648289   -3.15578297682521
C          21.44124210126233   14.36158387257043   -3.53781997108691
C          20.48610484738808   14.42889594853138   -4.51770866366002
C          19.69548253046083   13.23038056078718   -4.92812564434346
C          20.25501877833670   15.66167023115248   -5.19139557349228
O          19.29948134180069   15.61096073174099   -6.15597623811529
C          19.01163545985371   16.77760933796430   -6.88628787961242
C          20.99353033720728   16.77739801502969   -4.87972174434644
C          22.95358325429135   19.10300220566298   -3.88715186581477
C          21.96112435554523   19.87723762610671   -4.33560123993244
H           5.73465646295913    3.40397175644267  -14.85399074970939
H           6.71311358586647   -0.95012888830429  -15.73165457928203
H           8.05659994912128    1.56006154607866   -9.85381259860082
H           8.67888385697496   -1.34807126361001  -10.60779023265023
H           9.96438577755659   -2.56605972439963   -8.67118089835718
H          10.94396883474418   -2.09946946835404   -6.32285582555066
H          11.92151789569205   -0.95948901886916   -4.38795801459289
H          12.51211584537568    0.73931586203563   -2.53030785724401
H          12.14218430629207    3.29431700479483   -1.94456054465817
H           9.71692755508757    4.41678528660999   -3.44887271672472
H           9.08561935845751    6.82295223441969   -2.69910965459111
H          10.15906423079459    8.88906782066932   -1.57686601651538
H          11.72993954615818   10.48229224713000   -0.74144827053846
H          13.88268290472646   11.71196936353262   -0.01133625386632
H          16.41449737661240   11.23343537641784    0.35827933187845
H          16.98514269905492    8.28708679117866    0.98488417675207
H          19.49287061164924    7.99640906358899    1.81581059270007
H          21.77559165582428    9.19884581703985    1.63941932147329
H          23.55647286967005   10.89570966937177    1.33260517360741
H          24.98686241892668   12.77683316096761    0.29613855775600
H          24.74795141530721   14.95187697405048   -0.91654005764780
H          21.65007286061549   13.40983070031769   -3.08040228894446
H          19.85905446790829   13.01623710816027   -5.98329717725749
H          18.63209928336322   13.42633207161123   -4.80109469811620
H          19.97223927586911   12.36243631307844   -4.33663673760678
H          18.67089949724169   17.58682586714979   -6.23243427357939
H          18.20936625661715   16.50604568121084   -7.57057153096466
H          19.87871429711258   17.11628250914949   -7.46261728482232
H          20.88696756205494   17.69023634766101   -5.43894988227077
H          23.93574072890244   19.54046618511206   -3.75071537563264
H          20.94521664957885   19.53309120594977   -4.41110332945375
H          22.14164883722897   20.90283387827425   -4.60514737829510
