96
 SCF done       -182.555179475305          0.000829161570
C          14.48552517041692   13.52797450199590    6.30065151823500
C          14.41817267061637   14.88572181385370    6.30690466121696
S          15.26892331775287   15.53800516130819    7.66131959270270
C          15.72049608091964   13.96838164341653    8.22491314290364
C          15.23456380449931   13.00580646296692    7.40432816729366
C          15.25501314331223   11.53579680767459    7.32486813048403
O          15.79906910723227   10.76643819661399    8.09236461012578
C          14.46810914287677   11.20864315433077    6.11257415108513
C          14.01020616999311   12.42237557324634    5.48713699021268
C          13.26646957980453   12.57781273078363    4.33823238813530
C          12.90384727511895   13.85723645466255    3.87550326113511
N          12.59688437746972   14.89002018508049    3.47716770540646
C          12.78539363068194   11.56183740090039    3.49546322765315
N          12.35154529203798   10.80915259759736    2.74128005655888
C          14.20309874073264    9.92419433105919    5.67463079163537
C          14.64294411742740    8.76027851941758    6.29205269289265
C          14.31465739274699    7.49703991913528    5.83066515157781
C          14.69477955866860    6.25766834158993    6.38918284246504
C          14.19661967361861    5.16931761152884    5.72768389540786
C          13.40132743123149    5.50311633844331    4.61588990069387
S          13.30926652663157    7.23937943590695    4.42558497328674
C          12.72274156904278    4.67407753989881    3.73482113491018
C          12.62596836565648    3.26724658809223    3.71078828074060
C          11.84130261059391    2.79139982689708    2.70074539957639
C          11.28004070489438    3.79293726505074    1.86970159202020
S          11.80112837966907    5.36938863433665    2.43077613284841
C          10.43989319680675    3.58032602635130    0.80155110640646
C           9.88143809117896    4.55301274009786   -0.04394141617707
C          10.08475707654625    5.92002843264759   -0.07233727000174
C           9.35590451707504    6.57995078364007   -1.06722750081277
C           8.55232077363978    5.69656569584400   -1.83318628519574
S           8.74052406789091    4.05371308352215   -1.29393248828136
C           7.75094333486208    6.14053583069745   -2.86336735950211
O           7.01051693491359    5.27503251598760   -3.61988957180614
C           5.61120885590190    5.28163527783482   -3.36764850472068
C           7.79014879232834    7.52617331567394   -3.14015497914793
C           8.59320443643209    8.42119440977297   -2.37125162307596
C           9.37720737499093    7.97752160642235   -1.32052889156432
O          10.17413083186633    8.67220606194709   -0.48951061833507
C          10.25511092953185   10.07916081205993   -0.54861959481534
S           8.43536081846222   10.05268600880529   -2.99955793163753
C           7.31681392420069    9.52966178272941   -4.24721906295155
C           7.09754366055157    8.17085478986071   -4.17695114212987
C           6.78951623552093   10.48624122073133   -5.13475367515943
C           5.75268787345767   10.30533780350713   -6.01622292552792
C           5.23946491311980   11.27848945891144   -6.91141434726138
C           4.16333821578767   10.86461575483071   -7.63896527849412
C           3.76121021487542    9.54245074863448   -7.35320986866141
S           4.80741035135801    8.83412769938716   -6.15248133856081
C           2.70107428969786    8.81258020787835   -7.86622181590197
C           1.75145597910506    9.17982967604561   -8.83952726660337
C           0.81939471837815    8.21106659973521   -9.08561140279836
C           0.98794923090296    7.03833022399973   -8.31706323837743
S           2.38320616045697    7.19753804685500   -7.27637044441624
C           0.19450478517659    5.90518017128164   -8.32403741601908
C           0.45096578031590    4.81611745704894   -7.49928133666040
C          -0.30646350577809    3.66391253342319   -7.42671039538482
C          -1.52667542473348    3.40595824660363   -8.22761137056009
O          -2.04043027694760    4.13074194113952   -9.05632218060933
C          -1.98558238088714    2.07470263817866   -7.79778312428593
C          -3.00295563307266    1.22734486186920   -8.08684006021917
S          -2.88453673460759   -0.21544297539005   -7.14415198138752
C          -1.45053366448378    0.33252206708107   -6.35332129327843
C          -1.09104197820248    1.56482891440647   -6.80141199336283
C          -0.04425321655607    2.54200992750991   -6.56100270435036
C           0.97910587615355    2.37182850658897   -5.65546862745896
C           1.07475129790804    1.19985842829970   -4.88035342037462
N           1.16910295412874    0.25117717855749   -4.23953415185848
C           2.01480661731829    3.27949482019906   -5.37603264701441
N           2.89417367322537    3.95967655716825   -5.08041328877846
H          13.93407986953755   15.55222278795629    5.62183281733403
H          16.30756947468902   13.86666665623125    9.11539207932415
H          13.59592019537042    9.80913641863545    4.78323746132853
H          15.25920075915938    8.83500518868898    7.17618242908189
H          15.32018893187882    6.20629272484644    7.26257858972331
H          14.38077550941748    4.14895373238789    6.01312014606482
H          13.12648024387076    2.64806922763727    4.43327798401034
H          11.64623604160861    1.74805198551499    2.52553235297712
H          10.17258839221591    2.55223082694029    0.59449378438770
H          10.74475767036013    6.45637104035804    0.58123465124565
H           5.39797457604793    4.85557427148289   -2.38207342176618
H           5.15675587133550    4.66226294818644   -4.13733329063261
H           5.19457314886647    6.29087502780673   -3.41843215107739
H           9.27435148535230   10.54386409354833   -0.42110999581490
H          10.70038978727783   10.41755366280957   -1.48779591506911
H          10.90049503112170   10.36038061011087    0.28324520128431
H           6.50103953963432    7.62573075839405   -4.88385870904063
H           7.22742888589715   11.47519262889031   -5.09489834547925
H           5.68289406731857   12.25576110020764   -6.98557840685906
H           3.64644360562588   11.47435587259957   -8.35789819844446
H           1.77599018608447   10.13675599366261   -9.32960595975815
H           0.01420364729668    8.30543251346770   -9.79229076048039
H          -0.65722973816648    5.87726371518177   -8.98780422314661
H           1.31976638429117    4.88766852592645   -6.85450904886091
H          -3.80847274345793    1.34861539955096   -8.78284622193303
H          -0.98304862509079   -0.29400263503843   -5.62057251247013
