116
 SCF done       -202.951090125584          0.000441813757
C          13.45270021005011   12.82689142033818   -7.28130197895419
C          13.08035356475914   14.07351849243373   -7.67510787312777
S          14.20257070933130   14.71797064293785   -8.81899133340894
C          15.18152478007481   13.29477474985713   -8.76854549581786
C          14.66023219821530   12.38342467567572   -7.91198572423425
C          14.99145963250725   11.03137051671490   -7.43030793248425
O          15.94239181997820   10.34707169678176   -7.75344753753585
C          13.91817204993617   10.69807297181795   -6.46591417970381
C          12.97366738369430   11.78427215741682   -6.39130470232682
C          11.81331924108523   11.87027796567809   -5.65551761328314
C          11.00469751229909   13.02183013513310   -5.70162879219868
N          10.32911282718529   13.95068897273887   -5.72292090991410
C          11.27981033639684   10.88027501866881   -4.81168095139987
N          10.76700961900974   10.12372105620137   -4.11377096091048
C          13.85681614085802    9.52968211951840   -5.73215745700060
C          14.74867600964533    8.46685091727750   -5.81638863467840
C          14.62589702845682    7.33942117326969   -5.02409125727984
C          15.43498768894611    6.18100128854683   -5.04093272542208
C          15.05834019211868    5.22145788856772   -4.14427683768172
C          13.93841828358323    5.58279282405900   -3.36933359355460
S          13.37121540675919    7.17711094759506   -3.81927298775831
C          13.28471192951896    4.87967380218384   -2.37288150449700
C          13.52172921883351    3.57290827812049   -1.88379512517033
C          12.66107422130912    3.19116931538283   -0.90248180697670
C          11.69469512603471    4.17500449241727   -0.54690891205816
S          11.95525170863758    5.61787791565238   -1.52522739140783
C          10.65851378080262    4.02612828087208    0.32774729556349
C           9.67679019283373    5.02287373623904    0.64384409343708
C           8.37311382672103    4.63653667454081    0.99646948116428
C           7.37593021916052    5.56978676738975    1.15640263731265
C           7.64101106267224    6.93579596765948    1.00277967573868
C           8.95813545190670    7.32722271509053    0.73908882563433
C           9.95305341454157    6.39652218247559    0.57216241021696
C           6.58056351802349    7.94189867771089    1.02569646941694
C           6.71388305553907    8.98499803899653   -0.00531824538634
C           6.50386306100441   10.32815300787390    0.30502393867531
C           6.69339767021609   11.30520084562178   -0.65313214959108
C           7.09959411707381   10.96164899408906   -1.93257339533409
C           7.31529826492406    9.63113100095483   -2.25095225156553
C           7.12579296166086    8.65078847166317   -1.29581716340033
C           5.55161492326726    7.92779689764485    1.91616787834932
C           4.36292378177310    8.77869881465496    1.73326578846823
C           3.74710357516327    8.87646663023415    0.48608486683231
C           2.60767004401770    9.64132383041646    0.32682765519816
C           2.06098503552832   10.31454099999596    1.40762103821814
C           2.65946622303652   10.21972122029742    2.65342403389482
C           3.80124660823054    9.45781969632962    2.81477770432259
C           5.54993500118544    7.11166533094377    3.12799022628265
C           6.71610953723100    6.87824954188462    3.86726629264222
C           6.66948049503203    6.22212789549786    5.07497931389847
C           5.44488635146966    5.82479266223452    5.63002370335594
C           4.28659666598480    6.00277041367806    4.86175606300013
C           4.34146124838442    6.62028357799182    3.63600462436941
C           5.39247872609465    5.31743407080291    6.97484665156689
C           4.41035986537322    5.61296211878362    7.86992758246068
C           4.32540576003883    5.19431934168603    9.22888011036976
C           3.32441645330476    5.78152024357449    9.93528625011042
C           2.56019967430094    6.70775071073537    9.18309511896036
S           3.11153103300189    6.75981263001383    7.53186654507825
C           1.53519005840855    7.53302463501719    9.60869456003941
C           0.93151187799083    7.62119133303103   10.87970365284908
C          -0.02669942894766    8.59006959602723   10.96392837748798
C          -0.21935065068881    9.31964997496823    9.76884635107005
S           0.83992094762504    8.71400726816577    8.51792170833466
C          -1.08374905014904   10.38062457788246    9.56935168568182
C          -1.15758984765620   11.06902119328754    8.36424965755654
C          -1.98345566388082   12.14531138962609    8.10322446279028
C          -2.95406836762626   12.71419093645417    9.06690462837133
O          -3.16639114695009   12.35954568429817   10.20978546873432
C          -3.61379388160638   13.81040542135272    8.33724015184864
C          -4.57382514894219   14.73576973714008    8.57814501831644
S          -4.82911229938813   15.72957396296652    7.18762239763663
C          -3.62789950601227   14.88737556307311    6.27613537751093
C          -3.06714502730594   13.89419728138459    7.01578939361836
C          -2.04568413517051   12.87389851744979    6.86151257344574
C          -1.29708714533595   12.69946522769093    5.71931811155166
C          -1.50327346788023   13.50256292321660    4.58144578769255
N          -1.65461640394687   14.14012319003966    3.63791078719341
C          -0.26551360281175   11.76500244762889    5.52905132608147
N           0.59692768386601   11.04179410909378    5.29234159782728
H          12.23529917274062   14.66237588683187   -7.37989867213309
H          16.06602817282313   13.23183781397282   -9.36987264218752
H          13.04197848631848    9.42476973184696   -5.02443286105520
H          15.56264704207384    8.51335985593634   -6.52482064125546
H          16.26684728444712    6.09073771792480   -5.71666948627681
H          15.55710476661063    4.27648298732924   -4.02127864841503
H          14.30507509281524    2.95221911551269   -2.28073873959790
H          12.67983231324190    2.23057450828032   -0.41800790566135
H          10.51857448379840    3.04307330797650    0.76028555391597
H           8.14220582015467    3.58444623160662    1.08448804761222
H           6.36709809578886    5.24822345279115    1.37033565182610
H           9.19180460103116    8.37916685189144    0.66894551363465
H          10.96466301014262    6.73414619314699    0.41335677804369
H           6.21052557184623   10.60404908796218    1.30715481960865
H           6.53225662774053   12.34200550457543   -0.39704910734767
H           7.25643805044549   11.72758780309122   -2.67689810502507
H           7.64478753831325    9.35949375024724   -3.24217194190685
H           7.28978536514738    7.61283839278676   -1.54985520617925
H           4.15773132751502    8.33609763873532   -0.35437967245302
H           2.13961014242205    9.70579073582991   -0.64461954710020
H           1.16764629896852   10.90784510581416    1.28235018081146
H           2.22761424054233   10.72769835218291    3.50208364036916
H           4.27055030918352    9.39362717044145    3.78638412981069
H           7.66067874230328    7.25180894884868    3.50139217371161
H           7.57761438694271    6.07512951513344    5.64189560951723
H           3.34295234014383    5.62424764942840    5.22356025053854
H           3.43744449601642    6.74010120103662    3.05780365726959
H           6.23801352021025    4.74124337148269    7.32846683582987
H           5.02122108452080    4.48136841065502    9.63522572858228
H           3.12822172702288    5.59944190380110   10.97676007537558
H           1.21422149712426    6.97589752320664   11.69229068176126
H          -0.59479709730710    8.81077932230714   11.85005644178319
H          -1.71127841882608   10.69046618099055   10.39221882609480
H          -0.50465321263767   10.72935866190036    7.56809883688414
H          -5.14540930322226   14.90376733893301    9.46864704138719
H          -3.42789574702813   15.18807416165766    5.26736083673878
