90
 SCF done       -193.151909471424          0.000471368439
C           2.61121132954296    4.92843284790026    3.33978252773177
C           2.13300001881335    6.20252242460269    3.32296242291214
S           3.27181926353465    7.27706931609058    2.59881414853291
C           4.40446226629509    6.00926784938914    2.31494017164995
C           3.91682765017213    4.82276536432280    2.75949086481368
C           4.35718309032054    3.42795792448933    2.81758978769479
O           5.41550875950882    2.96947163368699    2.42342951888859
C           3.25092639680721    2.68763662235033    3.45109296410909
C           2.18098585685464    3.61604066071047    3.78348818168594
C           0.98633004560422    3.36482868436772    4.40500395549076
C           0.06331329774907    4.40286340187772    4.65292813793736
N          -0.69638555610046    5.23736871820161    4.85986426737185
C           0.53465526676349    2.11339266814907    4.86746105602739
N           0.10967635111147    1.12530730406325    5.26987845006110
C           3.22276411575012    1.33546491612993    3.67565442614452
C           4.18436641781086    0.34694279738618    3.41363089929691
C           3.95484563427275   -1.00192425874905    3.71324239764252
C           5.03145417245663   -1.80654202050341    3.39396681737453
C           6.10599673009689   -1.06630113126266    2.84465568144266
S           5.78373702543129    0.60047229695910    2.71411540864409
C           7.15708625871204   -1.97053756032157    2.56417489583469
C           6.76073216461494   -3.27056570485707    2.92804739125174
C           5.40734629664878   -3.21073572409644    3.45939293002662
C           4.65548012728092   -4.25070113413643    3.91882932879957
C           3.34421547014490   -4.07363167146561    4.41050114423829
N           2.27871876700576   -3.93820903873532    4.81045725754322
C           5.13891282684361   -5.57665817576075    3.93024116772960
N           5.53391647124645   -6.65272698506026    3.94135372409835
C           7.74597269601307   -4.22822942015677    2.69370738115045
C           8.89255506606213   -3.66597205593432    2.15547970848845
S           8.74308954662003   -1.93040180206111    1.93349666282140
C          10.09791723129555   -4.32760561785489    1.80413458594444
C          10.38567499721113   -5.67851435111099    1.90901568158395
C          11.68119887451767   -5.96852783188179    1.48245601713363
C          12.38402268007179   -4.83047714265863    1.04917161054684
S          11.45131685116257   -3.40720613430579    1.16412632307959
C          13.68406971127406   -5.22434792676819    0.64800642366641
C          13.80799461461484   -6.61295092714145    0.82822668064608
C          12.55215834118950   -7.12788845037517    1.35344955306645
C          12.25625189379719   -8.42375915593692    1.65501652633758
C          10.99436197428628   -8.81036893999402    2.15577835436912
N           9.97005083539791   -9.12680194156431    2.56113452900335
C          13.19398979523690   -9.46423179302704    1.48178126486045
N          13.95712656124310  -10.30811881579369    1.34193483812765
C          15.06456920584218   -7.09622857520171    0.46525921054975
C          15.89421454007975   -6.08748447491657    0.00925778158477
S          15.10778292488664   -4.51467795971475    0.02961569331867
C          17.23281942030127   -6.19915764773623   -0.44316561336118
C          18.03848861955483   -5.18240993209883   -0.92618776729486
C          19.30107916783118   -5.64764671192916   -1.28644674524255
C          19.45998319330247   -7.02913509048101   -1.07316694511521
S          18.05075282742335   -7.75364891839777   -0.43171683963070
C          20.76487336182958   -7.41166457816422   -1.46797650928177
C          21.43326773035509   -6.25493347332674   -1.93770798033679
C          20.53697122545949   -5.11426521648349   -1.83638178545736
C          20.79175748089217   -3.81967879652966   -2.18006884309861
C          19.82405679901963   -2.80401288685646   -2.02860385189826
N          19.03446372429863   -1.98187146928670   -1.90438538107457
C          22.03464826632294   -3.40815151470075   -2.70724435206349
N          23.04154881137075   -3.06475800420777   -3.13395858634097
C          22.72116815493992   -6.52934584311447   -2.35485025040749
C          23.05661620918335   -7.88089765663476   -2.20763112198688
S          21.72387935399268   -8.81743488451289   -1.53012266664410
C          24.31700421638760   -8.37159946469549   -2.58398995707664
C          24.84009604591066   -9.63614921952915   -2.50778118024782
C          24.15190222950105  -10.81492785977247   -1.95039993677011
O          23.01886093708757  -10.85814728068126   -1.50373772011478
C          25.11395228199925  -11.91429154876635   -2.04436285385126
C          25.16228009643334  -13.23307218735173   -1.72543272450849
S          26.69117715141019  -13.90603469284743   -2.15013181929201
C          27.27033958881577  -12.40130197230880   -2.76342638126137
C          26.32359170970213  -11.43119534721237   -2.64127151999295
C          26.17360568593747  -10.02071763696482   -2.94461642446425
C          27.13756553749457   -9.25237939254152   -3.54222840311216
C          28.38470032886744   -9.80294207300733   -3.90614972987727
N          29.40282533660712  -10.23751253830425   -4.20765058268162
C          27.03039540129158   -7.88634226000539   -3.86841727056610
N          27.00684232102162   -6.77648961259623   -4.16271889480089
H           1.19919843239982    6.58809349376710    3.67999911108929
H           5.34393988318817    6.21937534824251    1.84432947332484
H           2.32213492933400    0.93721224784292    4.12849285819270
H           3.03084809711897   -1.34207734674634    4.14669074771873
H           7.64602021777305   -5.27710630913461    2.90248983625339
H           9.68397365518813   -6.40317159398724    2.27823598795257
H          15.37585973743598   -8.12382571685597    0.52279051893869
H          17.70559288885441   -4.16308816570798   -1.00618256983453
H          23.41273395322294   -5.80802938201919   -2.75336976350843
H          24.96131037059837   -7.60375426472720   -2.99641114053792
H          24.40874950094283  -13.84637091458085   -1.27344415526846
H          28.26178026307822  -12.34336039466223   -3.16573901805131
