126
 SCF done       -255.351777820214          0.000811235653
C          11.50909330274143   -9.81095205013576    2.79602408363897
C          12.27330293571866  -10.74549859025062    3.42631142512595
S          11.31858771491381  -12.10028189446647    3.90199619996352
C           9.87900961375187  -11.41248668632305    3.24881862743859
C          10.13583182488870  -10.19945190553799    2.69680435743708
C           9.37191268232386   -9.15377806450527    2.00765045815602
O           8.18203475849314   -9.16905922453561    1.77472259314869
C          10.36634284944997   -8.08640399022130    1.69673261819573
C          11.67858134816632   -8.51397503088847    2.17378322523629
C          12.88626007925979   -7.87827113367937    2.05280277539167
C          14.06532473140457   -8.45574228595251    2.57108321835532
N          15.03470285738591   -8.90644246297347    2.98792460452165
C          13.14043509403686   -6.64420025026949    1.42183932568061
N          13.43926159447490   -5.65406622717107    0.92210296953324
C          10.15179492414595   -6.86281010304818    1.12717840280435
C           8.99885063365507   -6.28699213910277    0.54637996610346
C           7.76238579633500   -6.79956327363427    0.23937090203598
C           6.90786592667655   -5.88400915515184   -0.40220618472382
C           5.57788628929126   -6.10918986530253   -0.83071318734827
C           4.89297934161459   -7.34225616111123   -0.51454269439145
C           4.95925451909886   -8.07225514530574    0.64051093798988
C           4.15070019387489   -9.22666935077674    0.60082439912082
C           3.46725731343570   -9.39959378537622   -0.56942864006537
S           3.81389426929747   -8.10050667729305   -1.65681770498671
C           2.54465491233867  -10.49579065094627   -0.95535551407503
Cl          4.04417025832700  -10.31712814406682    1.92591711023479
C           4.98808214770122   -5.08351633316780   -1.55747766659671
C           5.62242717489583   -3.83865194067130   -1.80819492141018
C           6.91347713406010   -3.57974190330223   -1.30220410505691
C           7.53645482737619   -4.63093098606000   -0.63533820475448
S           9.14273497793496   -4.60931845870641    0.02137204855917
C           7.56004400343739   -2.29235386333551   -1.44873560935622
C           8.88316189696941   -2.02748809585247   -1.65986675519387
C           9.16833613744785   -0.64506285181970   -1.68185460650743
C           8.08536103153053    0.15976911881913   -1.47689178096090
S           6.66521629759301   -0.80506429356894   -1.26122791131861
C           8.02327867105443    1.64178339009011   -1.42207545172703
Cl         10.75800500358777   -0.04057289613289   -1.94683906919815
C           4.82637496580867   -2.99947065900189   -2.62020541602430
C           3.62130871625816   -3.54775569165758   -2.95980820798755
S           3.39723174761753   -5.13878721051740   -2.26727135507564
C           2.63383125580046   -3.00876379383863   -3.82786191812388
C           1.42509524353570   -3.57608719345403   -4.17790942635758
C           0.74573933286213   -2.81216006020938   -5.12855579341430
C           1.44759583923084   -1.65470055717953   -5.50003563482730
S           2.93035029065268   -1.49531262889855   -4.66936855570976
C           0.71499870391397   -0.98791181100718   -6.51677612853337
C          -0.45122527852459   -1.72229635946886   -6.78392076983761
C          -0.48031716972047   -2.88426170748060   -5.90872824260951
C          -1.44510866439079   -3.84520070766735   -5.84285178901830
C          -1.35709294110312   -4.93883190816647   -4.95528313716203
N          -1.28904191184796   -5.82984320939887   -4.23723056622396
C          -2.59667197741940   -3.81043556563555   -6.65798195229534
N          -3.53383811785420   -3.78522640716387   -7.31770470750209
C          -1.20817730525364   -1.17790140162551   -7.82327658706755
C          -0.62328117416413   -0.04313626577180   -8.34807523264226
S           0.87612138671863    0.37443917251965   -7.53202512474159
C          -1.05650011744866    0.71940478586074   -9.46621530499337
C          -0.44739614184612    1.81547824419514  -10.01019483493418
C          -1.07065326858681    2.28826147399773  -11.18699373171086
C          -0.70006814609566    3.39166230655106  -11.98311950442764
C           0.45870093926867    4.21351834469742  -11.70000001446161
C           0.58332016754040    5.56336062384085  -11.86790374028758
C           1.87482565679235    6.03860943142242  -11.55336105499970
C           2.75275011095108    5.07121089743138  -11.15920199746158
S           1.97011485709207    3.52765647060095  -11.16193186743133
C           4.17828592265296    5.20814873870366  -10.76934052089673
Cl          2.29125400317720    7.70499480866571  -11.66300692734713
C          -1.49640096475833    3.64585305607552  -13.09654990707487
C          -2.63293532642338    2.86418412773626  -13.43838279444751
C          -3.02653360319924    1.78231706799741  -12.61637958555127
C          -2.21392684111283    1.51615736830883  -11.52233371966880
S          -2.47000932438785    0.22973336009051  -10.37332593215994
C          -4.20732429022093    0.99407542663987  -12.89261112873817
C          -4.37803842324047   -0.35370409354661  -12.73551433820374
C          -5.68251698089829   -0.77745420860041  -13.06141967339972
C          -6.52265683006883    0.22795868287298  -13.44950514006482
S          -5.68861490937329    1.73992983085674  -13.42895904438220
C          -7.94747095207015    0.14417185457620  -13.85584830725791
Cl         -6.16137543247861   -2.42814415955969  -12.96994349529295
C          -3.19602806851039    3.24974212516952  -14.66937852527854
C          -2.54765988049391    4.29904379768212  -15.27307036587274
S          -1.19928946900596    4.87002854743285  -14.28950463109967
C          -2.75162611388947    4.97314450214972  -16.49840977801751
C          -3.61894179315327    4.75365198895972  -17.53156826136553
C          -4.63688202284862    3.67480438305936  -17.68715053219034
O          -4.95966447746386    2.81486752016093  -16.89536545287281
C          -5.19163973484860    3.86384519973586  -19.03271199992405
C          -6.11243262679606    3.25120266333637  -19.81945499293414
S          -6.24930550717809    4.05751297287925  -21.33718257377005
C          -5.05832284380282    5.22828471301358  -20.90894375179763
C          -4.58321848920274    4.99993350942867  -19.65320441382640
C          -3.62325668780663    5.57992684383366  -18.73653655392108
C          -2.89521991231819    6.70749600928300  -19.01152005806039
C          -3.02976897022086    7.37358265482537  -20.24880758971826
N          -3.12360910505935    7.92884127345278  -21.24858445402127
C          -1.96746809680579    7.35395053994118  -18.17040714930615
N          -1.20362823455445    7.95082716386160  -17.55397579229125
H          13.32148108327055  -10.73763188802869    3.64804743754121
H           8.94946128507196  -11.94154947623717    3.31359659322022
H          11.00686201861242   -6.19681518991054    1.10396418649592
H           7.49503035732790   -7.81812771840403    0.44440637516031
H           5.52852847339599   -7.79061357568181    1.50634885305941
H           2.37015687289596  -11.14531196576614   -0.10126478148631
H           2.96956140283122  -11.08722333960324   -1.76642878122823
H           1.59351456693108  -10.09192864693044   -1.29891233269136
H           9.63172075708559   -2.77793599448467   -1.83207562469460
H           8.98618672346364    2.05771530942238   -1.70762150771501
H           7.78091190056535    1.97854487388916   -0.41396604276877
H           7.25570326589095    2.02036269133050   -2.09542815218876
H           5.13753911169746   -2.03266634357127   -2.97150822510901
H           1.08047710094144   -4.50600334771954   -3.76256756567182
H          -2.13022544239419   -1.58189925608320   -8.20103317400605
H           0.42616664541496    2.26111749383753   -9.57136661281998
H          -0.21825029262101    6.21169372108608  -12.16892080461819
H           4.44338002445374    6.26130585333208  -10.72179550061736
H           4.82423591925789    4.71597885531509  -11.49655412812102
H           4.35742735281531    4.74986304427740   -9.79772864053989
H          -3.60015889524319   -1.03368569379060  -12.44221828481688
H          -8.26595930498651   -0.89516327427185  -13.86468834876161
H          -8.08438028743885    0.56849250021493  -14.84968401976634
H          -8.57849349796504    0.70117229571566  -13.16349986412366
H          -4.03612111203654    2.76220116859509  -15.12632580553319
H          -2.06547414965646    5.80187964338653  -16.63235485740844
H          -6.71244468730344    2.38839912519292  -19.61064552680295
H          -4.79752327418974    5.99321561584430  -21.61229511811744
