130
 SCF done       -246.976556708992          0.000811130180
C          -8.66134860722246    3.06071237913444   -4.69836662590819
C          -9.94932468946693    3.37076422245696   -4.34774289380512
C         -11.00492094563086    3.52708951163254   -5.27412045020552
N         -11.91432889536443    3.67047471499498   -5.95896775388352
C         -10.45665239586748    3.57494458622249   -3.04598037347836
N         -10.98189651755236    3.74867069868627   -2.03877170727583
C          -8.20179101179191    2.81772014533187   -6.05690630379320
C          -6.82368977146277    2.48697837176071   -6.02149503036843
C          -6.09882758430368    2.19052176704135   -7.15148260638839
C          -6.76516209590073    2.22046952215161   -8.37919526163597
C          -8.14280013709308    2.55362459834591   -8.40822348378709
C          -8.87399751087351    2.85394858443312   -7.26592910329576
S          -8.76069981470787    2.52725760458156  -10.02870741678650
C          -7.20657479631335    2.08002563439208  -10.64032685875413
C          -6.26141853781565    1.95435910642841   -9.68261943210660
C          -6.34027343867104    2.51267432162033   -4.63520870936494
O          -5.20953028705330    2.27791298795589   -4.27149660200183
C          -7.51774993120821    2.89032142275108   -3.80027882560058
C          -7.59473469959836    3.08237577371751   -2.45897586652282
C          -6.65818273856635    2.95722990363133   -1.37929575748052
C          -5.35125787061048    2.57412213600130   -1.39915194069414
C          -4.60212665155732    2.49026077590232   -0.18356725792539
C          -3.26913499082434    2.11027776520525   -0.17774651072912
C          -2.53691871617969    2.02853462400939    1.01800068060348
N          -1.94076718350358    1.96577628609332    1.99827807170693
C          -2.56302972280705    1.78395012973486   -1.34721342797081
N          -1.96087479660737    1.51004100114289   -2.28603173934482
C          -5.30546746462691    2.81159871842685    1.01766093578216
C          -6.61056217299745    3.18931368859024    0.96274425008399
O          -7.28645239533622    3.27682145809842   -0.20743628554290
C          -7.41860500111841    3.51867370565957    2.10291404674489
C          -8.71353115467449    3.95211967955482    2.07403213523624
C          -9.26303224058275    4.16893162137119    3.35829035030246
C         -10.57521535714378    4.58093332672045    3.67486180326683
C         -11.56586586168073    4.77712375716968    2.63953682801659
C         -11.78684283880436    4.02244648904275    1.51994044635318
C         -12.82290312134709    4.51773269676260    0.70634762245985
C         -13.39670983464262    5.65207041218005    1.19215430357519
S         -12.67144569452050    6.12527528312954    2.69452600659815
C         -14.50256232244938    6.45322858124045    0.60714791100522
C         -10.84614446505683    4.77313783891811    5.02462480549669
C          -9.89941554762762    4.53189619382522    6.05209286376866
C          -8.60227037167612    4.07364381298501    5.73879026944084
C          -8.31768308675775    3.92309700638328    4.38523834804528
S          -6.79557749582348    3.37940988937706    3.72886547547370
C          -7.62105328053172    3.74765990344635    6.75258702684035
C          -6.26982387993691    3.95472091540408    6.71847691568936
C          -5.59762756986934    3.46160238057494    7.85380485010735
C          -6.42136925096971    2.86171648076642    8.75542865312595
S          -8.06763933036121    2.90881245816968    8.21668644510086
C          -6.07338093713932    2.21924630556918   10.04927272523095
C         -10.43291926994701    4.81290236635000    7.33064249556617
C         -11.73875401820861    5.21438681725393    7.30492801394928
S         -12.37680012272356    5.28353063730405    5.68058251586686
C         -12.54924424670433    5.54611868864709    8.43096512551078
C         -12.14191156723916    5.64313221877925    9.73255953084499
C         -13.18241371093409    5.96010257724183   10.63275162915705
C         -13.08601203893803    6.16935177178158   12.02621867513095
C         -11.85816643831050    5.97694279367370   12.76807159495493
C         -11.40774453734736    6.68227078620235   13.85001562460867
C         -10.20487744285487    6.18215391869831   14.38534992458600
C          -9.73290212698118    5.08674798058778   13.73074168462309
S         -10.77429226483829    4.65643931873397   12.41455811747751
C          -8.50659124733145    4.29566251447848   14.00950427216437
C         -14.25994721942968    6.54037297117533   12.66834620739752
C         -15.51014282677878    6.68020010320186   12.01049531908076
C         -15.60452815927474    6.47205286679390   10.61510004474397
C         -14.42556663620875    6.11475173597411    9.96891393335287
S         -14.25815263133119    5.85138911239529    8.25384635653624
C         -16.84003410505872    6.62942643796156    9.88198652380289
C         -17.29221464466869    5.88898545856909    8.82336687680659
C         -18.51830488405718    6.34469212922195    8.30464440368620
C         -19.00655607411487    7.44290845980881    8.94477736639537
S         -17.95209410208761    7.92878326016102   10.22988791856139
C         -20.25989998606281    8.19287637618933    8.67494207948112
C         -16.54870212752037    6.96789122261962   12.91760253369913
C         -16.14738881739341    7.04033366068114   14.22928774543194
S         -14.41279812336833    6.81594172275803   14.37936493257402
C         -16.97731530310656    7.36566852307651   15.32757682362590
C         -16.71617745200090    7.23584583492012   16.65805459110308
C         -17.45551597143508    8.06134247341740   17.64589619756314
O         -18.47316160037009    8.68740451491557   17.46689026136479
C         -16.63307270607943    8.00045491397175   18.87794998275422
C         -15.56462587961841    7.10391473745585   18.68837226359474
C         -15.69335024088094    6.49643847827829   17.36622497496109
C         -15.16145047886875    5.29220682454044   16.98860588058473
C         -15.60040824583786    4.58588645642411   15.84709255406745
N         -15.99227306337280    3.95298819850751   14.97372339437353
C         -14.20644032078761    4.58595775889118   17.74610130590264
N         -13.40931156448698    3.99542658558425   18.32306934412485
C         -14.63905754802654    6.90730884599673   19.69812538359767
C         -14.79689130198263    7.60957151023088   20.88757583167040
C         -15.86707241748797    8.48637527023332   21.07450561593012
C         -16.79732516223776    8.68762082786782   20.06237213332802
Br        -16.06392575472156    9.41884232333258   22.70750541147485
Br        -13.52383954607845    7.36018087105140   22.26288488403559
H          -5.05118774672117    1.94197439747244   -7.08381644598488
H          -9.91916343109932    3.10094281771024   -7.34507143172764
H          -7.09430390303847    1.93570599239281  -11.69734166863037
H          -5.23975707721752    1.68281233207941   -9.87619298030454
H          -8.56046771432896    3.39036624772761   -2.07388981667707
H          -4.87291581324833    2.32984616248567   -2.33450846109237
H          -4.80237194962259    2.75338562809128    1.96954185980031
H          -9.24497851631358    4.13024363007548    1.15771663071279
H         -11.25610490745147    3.11279251692640    1.30460924545824
H         -13.11721188005147    4.05246408574196   -0.21664591027081
H         -14.21033664766587    7.49779472850879    0.50569277002944
H         -15.38451140087721    6.41575355451550    1.24699349779734
H         -14.76367018133488    6.06275973653940   -0.37338633378992
H          -5.77178234081418    4.48032201171600    5.92414691509084
H          -4.53498032444869    3.54871978970207    7.99362126308279
H          -5.02020865977453    2.37472633336361   10.27007074303964
H          -6.26745437666552    1.14720724064653   10.00975534570794
H          -6.67184959576538    2.63371593593658   10.85975371168960
H          -9.87248500296714    4.72268644935602    8.24123843880255
H         -11.11958546815531    5.51065534829414   10.02984344035223
H         -11.89736401728647    7.56151873521951   14.22829040568678
H          -9.70788385033871    6.62153765586828   15.23176928504197
H          -7.99407044671597    4.70020958085889   14.87882080340042
H          -7.82800243027453    4.32445659691163   13.15674071691533
H          -8.75703286289946    3.25278163766001   14.20240156617876
H         -16.78401408401414    5.01761091348857    8.45267882135666
H         -19.02168338857613    5.87332118384973    7.47952996735355
H         -20.75130880216672    7.78930808148576    7.79299933276283
H         -20.04979315720399    9.24930313061881    8.51082014483461
H         -20.94269314217532    8.11809018171035    9.52157709726141
H         -17.58029594560056    7.07325475451578   12.63572367166551
H         -17.90560910528395    7.87119102360175   15.08045844922532
H         -13.80106605545790    6.23852248943564   19.58235271063628
H         -17.62688683325862    9.36413506110462   20.19775238935587
