98
 SCF done       -194.366215257495          0.000781775266
C          -3.03432293200070   -1.39672116609656   -1.45827252824563
C          -2.29725552921989   -1.75020021123724   -0.35776037859650
C          -1.26509438668312   -2.71283931957359   -0.37200351505132
N          -0.41499200064478   -3.48163870072102   -0.30819337192306
C          -2.43867874166985   -1.22449531245492    0.94368975500053
N          -2.47935890263172   -0.85742656785849    2.03166708890846
C          -2.86293315000563   -1.94974171289170   -2.79649030434211
C          -3.79766776175011   -1.33588698286759   -3.66762044669249
C          -3.88588291692161   -1.64708631031143   -5.00308979722586
C          -3.00946725225971   -2.61236663235395   -5.50672888509377
C          -2.07793639096553   -3.22106023749739   -4.63108935313707
C          -1.98877120412758   -2.90536820098911   -3.28052765470687
S          -1.09716249428981   -4.38308924966370   -5.46719117785504
C          -1.92481824865461   -4.05183515356691   -6.94922353480964
C          -2.89178859000596   -3.11554776199914   -6.83275149891628
C          -4.60328415274546   -0.36542168979901   -2.91152663894042
O          -5.49438842829341    0.33068776370887   -3.35751708983169
C          -4.11012932131967   -0.41843711242416   -1.52145119039027
C          -4.57772959200977    0.31646874159178   -0.47047319245547
C          -5.59581681897713    1.29419272730097   -0.40745125090829
C          -5.90468869879500    1.93944615557115    0.77667745224956
C          -6.92750326671093    2.89403556156828    0.65794345660457
C          -7.41304303733060    2.96654006431341   -0.67832019204640
S          -6.59387468352511    1.85647172962063   -1.73636373755933
C          -8.41195886530183    3.84400338613661   -1.04377639415877
C          -8.94292495057587    4.68105131229083   -0.06543865009621
C          -8.45636125287526    4.60298453069053    1.27189451263516
C          -7.46814570001637    3.72777708418281    1.64641731695754
S          -9.26221348990324    5.75654015769045    2.30582793308693
C         -10.21805517695219    6.34025438724927    0.95426408277993
C          -9.94028185463394    5.67335253203161   -0.20623224396406
C         -11.12706182878491    7.41952422909828    1.13001995978179
C         -11.40983989231750    8.11753052092908    2.28668844177510
C         -12.31780214854453    9.15577112585011    2.06192921570865
C         -12.72550475646125    9.23999805491894    0.72236228153421
S         -12.00577057916080    8.04446382604020   -0.25829238239128
C         -13.60571728914529   10.34423588936079    0.58353520448328
C         -13.75486618619336   10.96088514716081    1.83477862449514
C         -12.96033932714625   10.22752742536659    2.80974032200055
C         -12.83821691994211   10.49081076879438    4.14163402895788
C         -12.03533730867480    9.70197265671788    4.99318476259051
N         -11.38301259155252    9.06524981116842    5.68846630843701
C         -13.50656399385755   11.56911694775726    4.75994535664079
N         -14.04525269191177   12.44542747919986    5.26607742443452
C         -14.57783784850673   12.08965361668905    1.78657378714442
C         -15.04919756713401   12.33094093050051    0.51229760080521
S         -14.47857971818370   11.13896623649607   -0.64714629192210
C         -15.86692277538313   13.40479277596079    0.06365066682172
C         -16.31656753909694   13.62630069315018   -1.20803991974075
C         -17.06972906026360   14.81544088161352   -1.34272925675971
C         -17.18709236272726   15.51315386176829   -0.10816566148660
S         -16.37237833358277   14.66256636625984    1.17843144079557
C         -17.85212573632312   16.71101530401029    0.00193937228766
C         -18.42548878817790   17.24848962937383   -1.15415216931223
C         -18.31218092851637   16.54764746675116   -2.38697070179256
C         -17.65093101174881   15.34463661353387   -2.49391768151370
S         -19.07928652765799   17.41661746658815   -3.67863359717829
C         -19.57125795435163   18.69447075039308   -2.57848724104397
C         -19.14388494828660   18.45487667279574   -1.29665073303784
C         -20.23142979418102   19.82488048177620   -3.12512230143770
C         -20.94236971843015   20.80684842938149   -2.51320051865588
C         -21.50068555306204   20.96001381684016   -1.18560623021287
C         -21.96095297149060   19.95512376015307   -0.37529739033442
C         -22.58633470469636   20.17388400360602    0.86922111111096
N         -23.07925465720842   20.30038985918022    1.89804949886207
C         -21.93849409880392   18.59199162381109   -0.73201236094700
N         -21.97164908267751   17.47554498119199   -0.99603196085896
C         -21.72889203082787   22.38536176158978   -0.97485384863052
C         -21.55315680996884   23.06246422566817   -2.20970338374736
C         -21.14674364247804   22.09401434752315   -3.24228693012924
O         -20.96313271657236   22.29043925547582   -4.42102319945512
C         -21.73466890395912   24.41855141738613   -2.33820921873557
C         -22.09336716266127   25.14066841658600   -1.19609716955002
C         -22.25315823894986   24.45730357240651    0.03394419827833
C         -22.07939305832799   23.08417582753619    0.16375429281300
S         -22.68413429243511   25.55182178220145    1.30915058419919
C         -22.65244598418593   26.88572976128716    0.20851211638800
C         -22.33306822685813   26.53686023769490   -1.05674812539538
H          -4.60995275797691   -1.15937033967581   -5.63716182054540
H          -1.26142751055286   -3.39875913068166   -2.65807659034668
H          -1.63105493662920   -4.58800182463963   -7.83065828777698
H          -3.50894661409767   -2.78234500203342   -7.64739538746870
H          -4.10582923515763    0.14894352061830    0.49044042045130
H          -5.39569357328099    1.72557339041870    1.70062223559879
H          -8.76965108187820    3.89028559696375   -2.05998426254801
H          -7.10789191051085    3.68169264554729    2.66171180556233
H         -10.42885132913818    5.89273022786962   -1.13956934123453
H         -10.96211798541663    7.87462167016057    3.23361192995252
H         -14.82418811513331   12.71751515599313    2.62399244000895
H         -16.10777572521561   12.96182949658732   -2.02817987122538
H         -17.93357131979732   17.22607439341881    0.94573691526053
H         -17.57296477440653   14.82763714958629   -3.43679945934740
H         -19.29205143397199   19.14333913961750   -0.48333129794192
H         -20.08490610545937   19.97574059997383   -4.19118916952485
H         -21.60243872158605   24.90645740600964   -3.29136201946871
H         -22.20525611024102   22.60702280110482    1.12178633824835
H         -22.87806183223253   27.86490263017617    0.58396168278335
H         -22.26440087421950   27.23152595188144   -1.87419315791251
