118
 SCF done       -222.668526602038          0.000665210631
C          -5.87791686871531    4.84943963830444    3.40815307221550
C          -5.56078457145723    5.47792667776350    4.57923802984354
C          -6.44401202142163    5.59118376815273    5.67534027495131
N          -7.11943677419678    5.70939590807015    6.59531395579469
C          -4.34187335865080    6.14348044753818    4.84088037334716
N          -3.39856057915763    6.73169832141045    5.12535303934530
C          -7.16406185594039    4.26426689356904    3.07115823433639
C          -7.16619454870484    3.93789173087263    1.69179132865879
C          -8.25557787907201    3.37582052747245    1.06889683723902
C          -9.39084082195388    3.11816798098988    1.84197159554507
C          -9.37523903954423    3.43923316901237    3.22212914025604
C          -8.27767940660249    4.01124300066151    3.85203602130588
S         -10.87964080957090    3.02482010008847    3.98081280955102
C         -11.50479063276439    2.44172532697075    2.47760995299805
C         -10.63414804766513    2.54722965231229    1.44989631778000
C          -5.86598064721331    4.28629793020281    1.08621906859899
O          -5.57952981957322    4.18033870257168   -0.08139953232649
C          -5.01328846757099    4.73956165828433    2.23206386111024
C          -3.66850722031902    4.82998371071719    2.26690410096330
C          -2.73382700481464    4.73105469107441    1.15762421701675
N          -1.50967301533711    4.31082514728758    1.49604650620727
C          -0.61803428568764    4.23419636644832    0.52537716144842
C          -0.91565254776895    4.57224783330115   -0.78429412437469
C          -2.22367384866092    5.00600013244804   -1.04439923364727
N          -3.11306374917642    5.08956714271157   -0.05465882662016
C          -2.65623084587333    5.37411054013809   -2.37567614368908
C          -3.95539841753071    5.55905081806162   -2.65948598052667
C          -4.51859676629427    5.90990394303106   -3.94466602514778
C          -5.91476894169907    5.78834282556931   -4.11063986237488
C          -6.55611510460601    6.08855473584568   -5.28909705658210
C          -5.77111229733327    6.54229859090689   -6.34516126554406
C          -4.37281138094476    6.67561744546394   -6.17741576018300
C          -3.72823249255201    6.36662305397966   -5.00141180682032
O          -3.86689756826669    7.14381901583847   -7.34476056694180
C          -4.95189272771797    7.27184057605892   -8.15603014905357
N          -6.08528662492628    6.93245437801079   -7.61710210638289
C          -4.76858769820239    7.76095531235197   -9.48336955565749
C          -5.72956668425445    7.93070761916111  -10.43711429563449
C          -5.22018985586550    8.45511903143397  -11.64880886473115
C          -5.92126063695868    8.71658629917648  -12.84516990063076
C          -7.35543650259769    8.53906315821217  -12.94198366162541
C          -8.31315229551608    8.85242390344819  -12.02040614515685
C          -9.61689985798910    8.53864584559133  -12.46194777733178
C          -9.67269206398376    7.98154202888988  -13.70673704741346
S          -8.07944540620768    7.84795118529184  -14.37060147958171
C         -10.86336624551306    7.53597159430688  -14.47344030877371
Cl        -11.01121904182024    8.83836439809029  -11.49773071599327
C          -5.16060603007320    9.15324360318991  -13.92330777042188
C          -3.75679173217398    9.34848682637646  -13.86240162433798
C          -3.05190424995801    9.08718859233699  -12.66652704509590
C          -3.81636847340224    8.66025649705176  -11.58471536503637
S          -3.18096921560950    8.23156017383522  -10.02054919080707
C          -1.61548310325247    9.22409707831563  -12.57228460006456
C          -0.87823983582319    9.67469831646788  -11.51163210102737
C           0.50891755974006    9.63792326844293  -11.76016714435015
C           0.85191115618523    9.14965252262103  -12.99008686926355
S          -0.56798027051077    8.72654199043680  -13.87589072082196
C           2.19956543835056    8.97446818530553  -13.58374960732458
Cl          1.66375026175782   10.16908685001254  -10.60015334259195
C          -3.24413149458571    9.84790247630079  -15.07639252667166
C          -4.19360265492617   10.01502721282171  -16.05340833395927
S          -5.79421370758184    9.56834444037617  -15.48760443306778
C          -3.98072945743422   10.47360068903599  -17.37720942743202
C          -2.78614520211220   10.72477870064910  -18.00805428331226
C          -3.07741089772174   11.09704981286233  -19.37410491223813
C          -2.19906530863733   11.43776409295913  -20.36709292336667
C          -0.80633041648151   11.49092745879622  -20.17840485487578
N           0.33503678132937   11.54944186419093  -20.07973684527064
C          -2.66705678776070   11.75842015099460  -21.65783727006724
N          -3.04324299343094   12.01723303547289  -22.70971954270213
O          -4.39649769692593   11.05566990648122  -19.59187597831241
C          -5.08920217332108   10.71110239473786  -18.37699222077931
C          -5.98657461176509   11.89714015927398  -18.05905623606350
C          -6.92052420546914   12.26386644347641  -19.02243392451838
C          -7.73502177306790   13.36133793490623  -18.81881201484350
C          -7.62218124539090   14.10315949610362  -17.65406102552391
C          -6.68154861112451   13.75057893719332  -16.70351471846384
C          -5.85686547180186   12.65594572326135  -16.90604243712082
C          -5.86549829486511    9.41735056144913  -18.59975639849111
C          -5.21395519299483    8.34975083996515  -19.20388383384184
C          -5.87223328429847    7.14840718059525  -19.39324733255109
C          -7.18126361768738    7.00030307484452  -18.96859196562761
C          -7.83097397825275    8.06087820864391  -18.36201402668725
C          -7.18018890687217    9.26815450077988  -18.17979344088755
C          -1.49472031993893   10.61546024900414  -17.47222713179836
N          -0.45231551238016   10.50842343794305  -17.00443147352832
H          -8.22954294079227    3.14033056895963    0.01617059867447
H          -8.30932185272348    4.23182145003484    4.90602439371913
H         -12.50257732590858    2.04840542215376    2.45610765886403
H         -10.84940486904138    2.23525206013614    0.44401008131101
H          -3.16806251557604    4.94073688705715    3.22083568121862
H           0.36718958076399    3.89236022348666    0.81705352786237
H          -0.17855330281796    4.50650595837751   -1.56830951512636
H          -1.87907006367483    5.45110778754323   -3.12285047612324
H          -4.65661940031253    5.39704155200428   -1.85168416029824
H          -6.48975518002698    5.43478419771823   -3.26780527019901
H          -7.62275845305214    5.98751674229808   -5.40351013538800
H          -2.66279839513274    6.49264295515105   -4.90674603534734
H          -6.75305056636580    7.65796946139254  -10.26591800740074
H          -8.11167297453332    9.32794362237263  -11.07864572318424
H         -11.72455786028445    7.47577598552165  -13.81253157524359
H         -10.68665416312397    6.56052985887867  -14.92266398519852
H         -11.08881092137805    8.24091459864029  -15.27431382774915
H          -1.29868005089273   10.06165992482958  -10.60228070985759
H           2.94451399403196    9.45862349754024  -12.95720707356038
H           2.23120548198424    9.40723116244738  -14.58234692317239
H           2.44746948464136    7.91615648879645  -13.66902651817493
H          -2.21237518301772   10.10022286695681  -15.22732738402625
H          -6.99489067507831   11.68668175344998  -19.93162262824808
H          -8.45638428529524   13.63913656287668  -19.57217091183692
H          -8.25952178710613   14.95948072141666  -17.49304097493163
H          -6.57784795836339   14.33218232988992  -15.79987078726697
H          -5.11626689726584   12.40863906657481  -16.16013125360126
H          -4.19039080606071    8.45453482169111  -19.53514285063702
H          -5.35732364207375    6.32735248847099  -19.86856274921712
H          -7.69262859446879    6.06033298898117  -19.11050464117352
H          -8.85108452473219    7.95248833431987  -18.02666440469113
H          -7.69499054401973   10.08907201580565  -17.70485623265440
