96
 SCF done       -185.373784804183          0.000882716002
C          -2.93737418079584    4.26054523917598   -5.70904035300306
C          -2.59996713834398    2.94074989056969   -5.55407534620562
C          -1.52371771607858    2.31625248243625   -6.21993536320496
N          -0.66629752046246    1.74545940629831   -6.72690835492515
C          -3.26523340729794    2.00370108868843   -4.73608397767412
N          -3.74483215586997    1.17374051082804   -4.10267082688650
C          -2.25361148804852    5.20556506845417   -6.58407318915263
C          -2.93237641340035    6.44874698521775   -6.53168466131228
C          -2.52940159410534    7.54765960299462   -7.25117899778596
C          -1.39689404051972    7.41752338894859   -8.05983969598766
C          -0.72107039405739    6.17420407797729   -8.10406574916597
C          -1.13147879605121    5.06180807837797   -7.37881620199345
S           0.65350601625112    6.24448936309687   -9.16118352927307
C           0.31728781966582    7.90081094615830   -9.52845393810772
C          -0.77100982277055    8.38702041858560   -8.89274011249690
C          -4.07215356421073    6.34281957401940   -5.60804323683728
O          -4.87244809012021    7.22086833435499   -5.35200597744527
C          -4.03510097459329    4.96957576341877   -5.06914128925095
C          -4.85439745323853    4.45893860583509   -4.10388328610752
C          -5.92344656515638    5.04943413081080   -3.39406987856411
C          -6.60035592090658    4.36061417531938   -2.40350890080782
C          -7.62178571511736    5.10154393997743   -1.78779867369194
C          -7.72363437792288    6.40578071868492   -2.34837660815134
S          -6.55471567188991    6.67252200326552   -3.60698043959650
C          -8.65247151698581    7.32140355049957   -1.89971041297275
C          -9.50164142183533    6.94321872073062   -0.86355192855343
C          -9.39467283581939    5.63733442055435   -0.30353665874299
C          -8.47884359485060    4.71714090989653   -0.74766841926353
S         -10.55006854313101    5.40763242692966    0.98458077490817
C         -11.15545503483832    7.04163294277679    0.77136649547256
C         -10.51142620948250    7.70698149148321   -0.23075125877167
C         -12.19472799782238    7.53908926431525    1.61075102731376
C         -12.82277558854794    6.90374645751662    2.64167835109489
C         -13.79896775844998    7.70200694878107    3.28841977003381
C         -13.90066608249619    8.99231749948054    2.70296898444732
S         -12.78972804733148    9.17445126681695    1.37428622803637
C         -14.77466276135628    9.94971931024024    3.16517375122725
C         -15.58027110666155    9.62364862210073    4.25540354461918
C         -15.47939544308455    8.33404745807525    4.84222884059228
C         -14.60863633746917    7.37475527943709    4.37611744347325
S         -16.57260015216322    8.16706603682481    6.18962143182651
C         -17.14771852510761    9.81066489514210    5.96431420678507
C         -16.53668383935950   10.43307448970896    4.91559328930973
C         -18.13523675400683   10.35188119887992    6.83886583640970
C         -18.72978319374021    9.75071979311931    7.90965312640406
C         -19.66026411984137   10.58102286770988    8.58134241793151
C         -19.76188258542100   11.86299964598269    7.97306836424464
S         -18.70517835385359   11.99429659188266    6.59427187289936
C         -20.59545240635743   12.84539285101511    8.45103181654611
C         -21.35976453340192   12.55643164706168    9.58408522437595
C         -21.26442899488608   11.27335501545484   10.18969810827570
C         -20.42975470749571   10.28967205851844    9.70640974242741
S         -22.31049702493755   11.15121051478160   11.57082546099038
C         -22.82844487443877   12.81732839050117   11.37336695026899
C         -22.24897207002692   13.40438821678359   10.27783155118438
C         -23.79680260355056   13.34131391107279   12.26936279304602
C         -24.09084351980915   14.63567420401380   12.55532868629329
C         -23.42154481604357   15.89052590632071   12.27576370572817
C         -22.07056763486310   16.08647270243271   12.15678670200208
C         -21.47327390461004   17.35080231157427   11.97666505315420
N         -20.93984702314732   18.35329785778715   11.80845327862380
C         -21.11112786171848   15.06179517726391   12.28577351488023
N         -20.28507866739339   14.27621079453388   12.42088113683465
C         -24.41470327931039   16.94976730974308   12.41407793123893
C         -25.58585512798295   16.40260900402317   12.99974751125711
C         -25.40286132468132   14.95311775026346   13.19187093245863
O         -26.16221286393373   14.16638849465182   13.70796518301255
C         -26.68592174471879   17.17001859718809   13.29897576299986
C         -26.63366767936095   18.53377185717052   12.99562130042691
C         -25.46711564234104   19.06566528897747   12.39439460310579
C         -24.34984375747307   18.29320605795860   12.09979957507279
S         -25.63282358675176   20.76681210638038   12.09723366265660
C         -27.22532331291265   20.75443151188698   12.77247413861834
C         -27.62331411080509   19.53641795022066   13.19962303520853
H          -3.07187887282197    8.47823353885695   -7.18828933723699
H          -0.57953186095148    4.13944305981076   -7.44657051934099
H           0.96750442618248    8.41695495963743  -10.20783112478997
H          -1.13038778387385    9.39453365516864   -8.99807769914475
H          -4.66724800212694    3.43717171111349   -3.79531270578853
H          -6.35443599524195    3.34833323047449   -2.13286464324804
H          -8.71914238742340    8.30653307689777   -2.33289859368282
H          -8.40917053901759    3.73254606050126   -0.31358835854456
H         -10.74901264985953    8.71990459847925   -0.50443055065104
H         -12.58930645292779    5.89506948879205    2.93409872943787
H         -14.83636776708384   10.92407794183729    2.70758987742459
H         -14.54524233719579    6.40114722279785    4.83518161140684
H         -16.76041719156313   11.44492036076904    4.62661754245093
H         -18.50368044085575    8.74364417230231    8.21286579371070
H         -20.65335479573261   13.81404251849717    7.98077229686179
H         -20.36549642202578    9.32373427115119   10.18100934398949
H         -22.47898837610650   14.40306285416496    9.94967689183390
H         -24.43977505213667   12.60999301426780   12.75031983061163
H         -27.55992416120832   16.73032523194995   13.75377068163918
H         -23.48520144503749   18.73979145966311   11.63695874628140
H         -27.77358049487566   21.67566270782381   12.80741009707977
H         -28.58078135633920   19.33782149497181   13.64604623783942
