121
 SCF done       -231.110318541392          0.000381108946
C          -4.24174808194633   -1.21168921478869    3.02416763709229
C          -2.93196337357619   -0.95817887586199    3.34399595662813
C          -2.09955564592246   -1.85816282818529    4.04215498407470
N          -1.36721395871878   -2.54079211889226    4.60443544677716
C          -2.21184467184828    0.21377637426012    3.03318974624138
N          -1.54554428196497    1.12734423104750    2.82795009319955
C          -4.96535875867354   -2.43410946357504    3.35413272167198
C          -6.27727506181460   -2.34403456018095    2.82531890809670
C          -7.21039761704606   -3.34064731750170    2.97786184436387
C          -6.83428688582647   -4.48244872302657    3.69132765710342
C          -5.52291167772322   -4.56476157503376    4.21773249417508
C          -4.57793202973709   -3.55781982544858    4.05995438474437
S          -5.27967702060971   -6.05923177763532    5.06620726596559
C          -6.90140485874458   -6.54938226922886    4.71769218887268
C          -7.59866879196777   -5.64315678633054    3.99835576622582
C          -6.43690181465703   -1.05285000844539    2.13706790730252
O          -7.43383390108801   -0.66665041423233    1.55829925155288
C          -5.15595340202717   -0.34162747393316    2.30352459402513
C          -4.88407356909640    0.93562455834050    1.90107290166116
C          -5.69437776130683    1.88512533928366    1.24474368097601
C          -5.25538190493985    3.17919240699019    1.02742124456114
C          -6.19975264726846    4.01024589389936    0.40834594875535
C          -6.06383677216888    5.37746125827727    0.06350850798202
C          -4.87952994586559    6.12738763430448    0.41981211103820
C          -4.17362382795122    6.09494801474449    1.59094738145349
C          -3.06187571061280    6.95924309986396    1.59691020796007
C          -2.90627261417479    7.64935694181246    0.43389822163612
S          -4.15654475396676    7.25161015163505   -0.69893895916843
C          -1.84726774198056    8.62719841823552    0.07257595318681
C          -7.13467556446732    5.94627113439306   -0.60874621842141
C          -8.31279607686052    5.23113384586138   -0.95189073579599
C          -8.44775792117682    3.86971993331045   -0.60900306748314
C          -7.38721174672609    3.29789933733850    0.09191810740833
S          -7.32002508101935    1.64795369022572    0.64128155514986
C          -9.61064011534086    3.08833163400004   -0.97141462644912
C         -10.22665344998023    2.10143098026571   -0.25102061290356
C         -11.30989953345991    1.51026127459006   -0.92769964243965
C         -11.51992649801892    2.02291475205246   -2.17153217367598
S         -10.37705489011332    3.27266629332406   -2.52835363193551
C         -12.55859429557775    1.64934558226386   -3.16629944697506
C          -9.27697580700692    6.06943507439683   -1.55882500688035
C          -8.86965147084719    7.36677571276332   -1.68033593926453
S          -7.25645688179159    7.62661935189138   -1.05843556768212
C          -9.59071896444098    8.49760556980643   -2.16517623407268
O          -9.15953115931823    9.71774891673618   -1.80535741251123
C         -10.00280422766776   10.65451219615320   -2.30120345353746
C         -11.00035826521337   10.01598949005629   -3.03711342848410
C         -10.72747143504664    8.62636936490621   -2.95214620348661
C         -11.48670714296202    7.53454357438327   -3.61166732760329
F         -10.67383892141968    6.64430876780345   -4.21793260712075
F         -12.23720141722947    6.81391522994835   -2.75234038513871
F         -12.32040388179736    7.97389895077917   -4.55872217116797
O         -12.05270083335224   10.58493919994673   -3.67498733886037
C         -11.75245012734407   11.15929748121811   -4.93938401928057
C          -9.76331382054813   12.01117841904143   -1.94722847519946
C         -10.61729197832311   13.03032636535573   -2.19627068750651
C         -10.44814401215186   14.39219695924250   -1.79542089824716
C          -9.35113072670807   14.93259699278931   -1.08462410085971
C          -9.33325243902220   16.30205258113469   -0.65581308637823
N          -8.23189380238696   16.79791994658990   -0.04790996906849
C          -7.23532775788857   16.01224353072369    0.23342601398787
C          -7.28667581301992   14.62487656188594   -0.11025894393828
N          -8.29912553661054   14.14168042061081   -0.77200563500791
C          -6.17304750034923   13.69152494008613    0.23072204308809
C          -6.03999773157743   16.61422236766252    0.89459758960704
C         -10.41787934054310   17.17286380447958   -0.87071276570134
C         -11.49716505844641   16.66049405046239   -1.60334880489000
C         -11.49909389780985   15.29460946787451   -2.07231745788932
N         -12.62383059518003   15.00144154052143   -2.73227101868819
S         -13.57232015866520   16.29518118915320   -2.73875113876196
N         -12.63421898275138   17.29298377385338   -1.91355605642886
C         -10.42923060954911   18.51457896785595   -0.32603749070864
C         -10.02534306612916   18.76792903755479    0.99601046869272
C         -10.00515455483287   20.10183877466493    1.52940782433513
N          -9.53909888768677   20.31328855159993    2.78843003387380
C          -9.14371789756568   19.30013010613871    3.49908875374600
C          -9.25958881599877   17.95786552133729    2.99925472810130
N          -9.69026929118847   17.72861973062314    1.79543773554948
C          -8.91374108070523   16.77851474660413    3.84700669225587
C          -8.60408771368590   19.57489758970254    4.86296310169069
C         -10.42978413228735   21.19140856826847    0.77991806044528
C         -10.85585073078372   20.95498230045598   -0.52090033318098
C         -10.84573783942444   19.61911541757783   -1.08333054762938
N         -11.22586205899622   19.62033520505626   -2.36554811535935
S         -11.59046672940591   21.11737443875669   -2.79308027526548
N         -11.27279078206243   21.86481400470067   -1.41346789609681
H          -8.20047608869741   -3.23875192635134    2.56127422540241
H          -3.59374430895151   -3.67004472109119    4.48269916729024
H          -7.23715424123055   -7.50199194587870    5.07891794095424
H          -8.61951877517405   -5.77618764105054    3.68887554455355
H          -3.89936949001544    1.32188763241563    2.13632826745765
H          -4.26613359356272    3.49894070906988    1.30198507701441
H          -4.46865709685026    5.50458589182812    2.43991669739101
H          -2.39901308933446    7.06315682437058    2.43758140397350
H          -1.18194898008425    8.78451523719317    0.91803813410206
H          -2.28670352044297    9.58162633322988   -0.21529730997982
H          -1.26131309148018    8.26338303365124   -0.77129897411679
H          -9.93819723212738    1.82741099103298    0.74713438405389
H         -11.91281412020242    0.72667334734595   -0.50446624924391
H         -13.18435162790608    0.85324347306972   -2.77004967433297
H         -12.09893759939488    1.30823749862474   -4.09368257340199
H         -13.18723538334693    2.50730878329352   -3.40364556716432
H         -10.25330566206338    5.73115827509979   -1.84456330308991
H         -11.50049966791679   10.38140450396213   -5.66652513541634
H         -10.92837134704218   11.87456880423943   -4.86609421908199
H         -12.65962963046570   11.67060797616388   -5.25232813043704
H          -8.85066411128126   12.19620697209933   -1.40184266152001
H         -11.55229108327869   12.83712893068066   -2.70397022208892
H          -6.02678798142952   13.65702114859176    1.30941353522197
H          -5.24277597132901   14.02985355779684   -0.22332353383869
H          -6.40640237243741   12.69433570379765   -0.13145316958676
H          -6.22202384735472   17.67128684431302    1.06616909980628
H          -5.15772159542231   16.49876783588758    0.26647484292770
H          -5.84391082664323   16.12045906091418    1.84518045857390
H          -7.87504192132808   16.83406704707224    4.16946735059886
H          -9.06689674032471   15.86908716620734    3.27272669684876
H          -9.54137400149407   16.75089363711096    4.73670827596801
H          -8.61823485932974   20.64542308693536    5.04530007288089
H          -7.58237477731842   19.20730240815145    4.94687042972358
H          -9.20592784312976   19.07210934502027    5.61843850638946
H         -10.40211938767255   22.18524987409032    1.19370280377645
