131
 SCF done       -242.637811059228          0.000714931967
C           0.80928035854649    1.96515779925198   -1.68272828205130
C           0.85763768229049    1.26855768741995   -0.50134987953414
C           1.79071278550621    0.24836143085278   -0.22156180333871
N           2.51719752877663   -0.59040333233392    0.07382788982593
C           0.00563314905509    1.45135258843505    0.60705448748555
N          -0.63966558828423    1.52701571251182    1.55495742965809
C           1.70248909287436    1.75695988303950   -2.81680936496816
C           1.35963195728051    2.67412921302982   -3.84155336046484
C           2.01642670083976    2.72117955450580   -5.04706954062044
C           3.06424183079809    1.81917969478112   -5.25463281332486
C           3.40226840080447    0.90784430617666   -4.22589853370249
C           2.73769642542031    0.86072197895506   -3.00607841929122
S           4.72456290569037   -0.11180659789846   -4.69976063994803
C           4.81073239987874    0.67354657601665   -6.23832016159610
C           3.89614975790165    1.65488977245584   -6.39776364171186
C           0.23222814053164    3.50686525246773   -3.39116816162178
O          -0.30103943345852    4.39706270898151   -4.02494772204381
C          -0.10989884096980    3.03180240539453   -2.03878650414261
C          -1.13815944415595    3.48760019915566   -1.26155331126198
C          -2.08673952993177    4.50309896459097   -1.49533112846593
C          -3.09562600383465    4.76792861539415   -0.58477749288318
C          -3.95547407837138    5.80583181190812   -0.96590095969195
C          -5.09486555784420    6.29520820120903   -0.27819747894909
C          -5.56839961128420    5.65564107190657    0.92903866170888
C          -5.64761556193365    4.31751409593625    1.20193378837000
C          -6.15250256965094    4.03879902213614    2.48646345705615
C          -6.45453664918647    5.15538576616206    3.20407684378915
S          -6.13396032724107    6.59093961820098    2.28725193744405
C          -6.98528228166485    5.25065442135787    4.58848965544497
C          -5.71566414738409    7.39991134500298   -0.83671349480040
C          -5.29145912574292    8.00554690388775   -2.04890740197393
C          -4.20222137902863    7.47344310627537   -2.76723291519144
C          -3.54337044921175    6.39098042870894   -2.19288294941001
S          -2.16676355805953    5.57519552965055   -2.87715230625234
C          -3.80572232750997    8.02843094426945   -4.04562610307169
C          -4.60911349477735    8.41814102245913   -5.08143847498339
C          -3.89155440363480    8.91611564709379   -6.18650892267843
C          -2.54343760324563    8.91706352956483   -5.99845983189528
S          -2.12901315316253    8.28116263176629   -4.44085811660731
C          -1.48045692434213    9.37096688727254   -6.93221733655033
C          -6.07529664236150    9.13417244721788   -2.37725038556354
C          -7.09447623103404    9.37385724570276   -1.49449042446788
S          -7.12086098167838    8.20749523667621   -0.18855238810358
C          -8.06553520000488   10.40628607780899   -1.54399491575528
S          -9.46351784207869   10.39007022943678   -0.48921902194512
C         -10.13505145191163   11.85452986821098   -1.14509629443214
C          -9.29100190663374   12.34752017266408   -2.14108596750839
C          -8.13861721005760   11.52305688572464   -2.35658098691923
N          -7.39392167872615   12.09417654278279   -3.34021922148646
C          -8.03573627941575   13.24493887950698   -3.74040545660363
N          -7.46661142800847   14.02948994900524   -4.75379617796390
O          -6.41128587462327   13.62692550158766   -5.22553452701468
O          -8.04406225465727   15.04385382752164   -5.09395624252990
C          -9.20411812283510   13.43621725332872   -3.03447388275376
C         -11.36743338422511   12.36709358199056   -0.68704665777193
C         -12.19566485610254   11.82259730589322    0.26161692655942
C         -13.37418440867018   12.56445622654662    0.48168084571900
C         -14.43798627147620   12.26234581432950    1.36126847426003
C         -14.46921245786785   11.01092100393306    2.08712250915782
C         -14.13319201290368    9.76642129983093    1.62903207800264
C         -14.29445106623146    8.75418976345948    2.59449379553903
C         -14.74569823885808    9.21717473951598    3.79241655765210
S         -14.99707255506397   10.93173906218384    3.74467071755414
C         -15.02418173960011    8.44922352226813    5.03405905476581
C         -15.44686265249764   13.21230742072546    1.46351501275716
C         -15.46883642576543   14.39947596379652    0.68846004465238
C         -14.44928486041440   14.66363592360525   -0.25372971887928
C         -13.41091880448364   13.74526266785816   -0.30518613818949
S         -12.01550245558996   13.85574347276021   -1.34616478347211
C         -14.51582455897442   15.82122306658764   -1.11990096915553
C         -15.61378111328899   16.34213172200937   -1.74713313683163
C         -15.32271579032661   17.47655932117222   -2.53058250781585
C         -14.00922336650420   17.83231959486564   -2.50379513312989
S         -13.09307001579147   16.75196734707635   -1.50476184655204
C         -13.34128374431617   18.96618230826370   -3.19372616981348
C         -16.58043503384550   15.20691551489200    1.00044906044935
C         -17.41759670859327   14.66387335425424    1.93882112120706
S         -16.84240239172681   13.10938187972275    2.50384892280327
C         -18.63279432608075   15.21203972262182    2.46209280700052
C         -19.19468983670404   16.44095529538303    2.04644192922290
C         -20.41672749828482   16.93337056764545    2.62259220230509
N         -20.92832330104063   18.12174923130756    2.20964669590419
C         -20.30763396385251   18.80315981928474    1.29297792200974
C         -19.09511953489301   18.30933282805263    0.70801062027094
N         -18.58362998680698   17.17351765321467    1.08708687825818
C         -18.37488515955886   19.06870284854928   -0.35573341143909
C         -20.90106840930887   20.10487113540341    0.87091546930116
C         -21.10877343485913   16.23206205071536    3.60418550946313
C         -20.58007529200324   15.01873720138530    4.01945137520109
C         -19.35079387910232   14.51249111944842    3.45086683560671
N         -19.01104649078001   13.33450431079791    3.97954984694220
S         -20.11134016061530   12.91450398258732    5.06760291899991
N         -21.07922523131770   14.18168788066582    4.94137033332518
H           1.72793828428232    3.43188484198664   -5.80594763689584
H           3.03397262411379    0.14563698158016   -2.25720477388280
H           5.55334934673034    0.34574378840945   -6.93952308441992
H           3.80030825343744    2.25033811570438   -7.28764830484351
H          -1.27933830855897    2.99942331200397   -0.30460488664950
H          -3.18182255635012    4.22932018797688    0.34210568028004
H          -5.39538072921896    3.55528205141907    0.48662737110817
H          -6.28483668783683    3.04089565919727    2.86529613147147
H          -7.14705857327673    4.25479052447358    4.99375711391682
H          -7.92826239446390    5.79634409838523    4.60267178854111
H          -6.28439684153781    5.78189406006801    5.23219659392740
H          -5.67899921186930    8.30497247794453   -5.07116999613766
H          -4.36157409372809    9.26177703077206   -7.09019045607420
H          -1.92629380638465    9.74063398713127   -7.85241966828597
H          -0.80566815298618    8.54949968315758   -7.17133017993999
H          -0.88827152513193   10.16790091546900   -6.48333658758711
H          -5.88429255187952    9.74176107205967   -3.24126406293060
H          -6.50572814736836   11.80700045511390   -3.71913789319478
H          -9.88663778886035   14.25210969305996   -3.15439414767937
H         -11.94198127126693   10.92468065730460    0.79570215154434
H         -13.82529757911774    9.57520755467811    0.61652701032757
H         -14.08419408399036    7.71657467709506    2.40366625407577
H         -14.81099735407266    7.39486568644230    4.87506848127620
H         -16.06835499439871    8.55760174224969    5.32594232026839
H         -14.40976390167768    8.81244059381876    5.85738599403575
H         -16.59163800057564   15.89943213107437   -1.68515880048446
H         -16.06406259738322   18.00712229419945   -3.10233898332275
H         -14.05799174431389   19.49955816263329   -3.81367876836097
H         -12.52822965814546   18.60681470054034   -3.82338577147350
H         -12.91694108053255   19.66155699963998   -2.46949876761433
H         -16.76497297772861   16.17452712550657    0.57690920900013
H         -19.01820405943159   19.20517089864775   -1.22399155776726
H         -17.48123959198950   18.52619323972293   -0.65212386956709
H         -18.09112385424176   20.05458033786654    0.00956452878665
H         -21.81300312941337   20.28200937949158    1.43338508528189
H         -21.12968329834535   20.09041294495368   -0.19366729348390
H         -20.19978530118192   20.91765721611928    1.05389688534842
H         -22.01972521098350   16.62874068201697    4.01818569507993
