95
 SCF done       -181.565448416206          0.000313177845
C          -3.37439549146976   -3.23766114687828   -3.56090839600260
C          -2.46120220027472   -3.66374779794891   -4.49051005181855
C          -1.70063737392357   -4.84571219744541   -4.37325243368141
N          -1.05834961886958   -5.79686102606003   -4.34209759927585
C          -2.14812353789623   -2.98657088727614   -5.68721318170536
N          -1.83798407450333   -2.49287214109384   -6.67681707675803
C          -3.67897133362679   -3.89926645301054   -2.29952624501123
C          -4.62930473427090   -3.12147805915288   -1.59080340546005
C          -5.12091504985851   -3.49303707471466   -0.36287697322556
C          -4.64740089575222   -4.68266335237032    0.19850714367267
C          -3.69809972065882   -5.45254909422389   -0.51581698927023
C          -3.20485295131993   -5.08104243815392   -1.76055090082542
S          -3.26184743199591   -6.88473410905078    0.36274487787842
C          -4.32994549932920   -6.44887846977473    1.65145825198975
C          -4.98637407310494   -5.28691053624296    1.44181699109969
C          -4.99002550341548   -1.93667596528006   -2.38766551049657
O          -5.87397203531314   -1.14384431794290   -2.14590249217148
C          -4.15862968485703   -2.01763411813807   -3.62071871924874
C          -4.27633761492655   -1.16250495023757   -4.67017245913162
C          -4.91244973765567    0.11865434574827   -4.60226445388899
C          -5.65690343007688    0.63456847807349   -5.65154456938475
C          -6.34358144490372    1.84703878723899   -5.58119517491846
C          -6.29914197593367    2.69066697390413   -4.47609682867655
C          -5.44714028468240    2.25098824890697   -3.41997612115143
C          -4.77873946299577    0.97508773141385   -3.47670540368522
N          -4.03573124160825    0.87397386266298   -2.39398121849062
O          -4.23454165517961    1.99038420323952   -1.70054075840338
N          -5.07950123195553    2.83014127324782   -2.29548763310196
C          -7.02836055634164    3.90880048366853   -4.36945179586474
N          -7.98275505535971    4.29556327782619   -5.29034734637145
C          -8.50323724302997    5.48501463889632   -4.89379570558208
C          -9.43864968559699    6.45924062587860   -5.21269309170633
C          -9.33076380892779    7.43881424806358   -4.21283549846977
N          -8.35230676065609    7.06909447575860   -3.31233979554305
C          -7.83753934401517    5.87307085224758   -3.69812842667071
C          -6.92144541820555    4.88316341862757   -3.36730925851148
C         -10.05760518543976    8.64248186811627   -4.05906528940456
C         -11.09344899212831    9.01327387909330   -4.85550067768193
C         -11.82838410799154   10.20970552309627   -4.71048427642949
S         -11.39790393131326   11.41607629950013   -3.53058813694541
C         -12.95386855304896   10.59745656386594   -5.44236183997981
C         -13.55401486684839    9.77957316413422   -6.51062446500193
O         -13.12259067683686    8.69706207872841   -6.87945034835678
C         -14.73232080085787   10.40168297161884   -7.09185850514879
C         -15.56353626156435    9.93964977829671   -8.08868093485044
N         -16.54364243615530   10.85197776320875   -8.29290292805634
C         -17.56903433615904   10.75883051523090   -9.30132250417141
C         -17.11093222289726   11.39956806449974  -10.60990123031744
C         -16.36251078827928   11.90391023011099   -7.46082132856732
C         -15.24625487147859   11.66625393085661   -6.68764986153316
C         -14.65260233228014   12.48974035219593   -5.64969683450530
O         -15.09830290253350   13.57812702112804   -5.32198073914933
C         -13.46154382696837   11.86049382325647   -5.04308464071891
C         -12.72175044590123   12.44387996112189   -4.01514497192775
C         -12.94342567809261   13.69526339833551   -3.40269420181981
C         -12.16186350542499   14.22572971864845   -2.42221779374287
C         -12.43448919612547   15.49235133852021   -1.86620093392888
C         -11.69250861213294   16.10191138072086   -0.89913036142886
C         -10.49267166052263   15.58902695181224   -0.25074105842315
O          -9.94289896672185   14.52679485940437   -0.44749180381204
N         -10.01618172586661   16.51143215739251    0.67778489576043
C         -10.72374869884797   17.66380933662446    0.80521987806975
C         -10.46304140687534   18.72014545219046    1.64110882116743
C          -9.39102692341389   18.81540861054066    2.54520838479029
N          -8.53870402830676   18.95494717898194    3.30230672706431
C         -11.31780418142645   19.84215966179669    1.63304602975355
N         -12.00738135939581   20.75863257602985    1.63354287292905
S         -12.10117546114730   17.68746543262302   -0.27084417722117
C          -8.82756997097453   16.20716876870481    1.43698723916515
H          -5.84651425556707   -2.88051933708902    0.14939202390588
H          -2.48814170638854   -5.70530335720514   -2.26761043738117
H          -4.40159934148210   -7.10125058504811    2.49999470402042
H          -5.69010594532998   -4.85958672358766    2.13302753450422
H          -3.89513951303010   -1.44939460384741   -5.64210275710231
H          -5.75549546752346    0.04189828759975   -6.54978200137129
H          -6.93229613583198    2.13195382577709   -6.44051944453476
H          -8.28171866728862    3.75102573302459   -6.07977119459185
H         -10.11277558379832    6.48700547521498   -6.04387913842962
H          -8.09301613418435    7.60110504091660   -2.49926747590397
H          -6.24960606679208    4.82833196173504   -2.53602608429150
H          -9.76318443928763    9.29042364434712   -3.24110260519622
H         -11.42159550964776    8.36824321404040   -5.65688856340819
H         -15.51264318634124    9.02403994995236   -8.64369773497251
H         -18.46638576240604   11.26245075250017   -8.93261384866528
H         -17.80181112800604    9.70323847281560   -9.46285704673761
H         -16.88172782521887   12.45131367738143  -10.45655665147499
H         -17.89464352415722   11.31840895817101  -11.35756551017084
H         -16.21880825022852   10.90233591015544  -10.98297159660769
H         -17.02563449746030   12.74605246892552   -7.45265913151258
H         -13.79927709068746   14.24603398086687   -3.77201923504160
H         -11.30364248798268   13.68153402309830   -2.05331186241279
H         -13.30044197363048   16.02320963233058   -2.24279940490468
H          -8.49368035734516   15.22150610503430    1.11104141958399
H          -9.04426355385533   16.18646536013784    2.50533347802332
H          -8.04543551961044   16.94186573196729    1.24405580936121
