102
 SCF done       -202.752315573828          0.000963242622
C          -5.73914507943519   -2.62998745082721   -1.44060393037743
C          -7.10157831816296   -2.75133636358404   -1.33746755502999
C          -7.85046872208158   -3.78230664377669   -1.94339771958454
N          -8.51915874686146   -4.58959259275955   -2.41126068692668
C          -7.95494131432745   -1.90308892872076   -0.59992788684601
N          -8.72799483172204   -1.28430380878521   -0.01796513043532
C          -4.85909491985063   -3.55856624461960   -2.13576612242549
C          -3.51700344433465   -3.17189353918119   -1.90080223130796
C          -2.44753437346541   -3.85661243860030   -2.42576700797260
C          -2.71316692203427   -4.97604381134522   -3.21991453956048
C          -4.05815962433092   -5.35233621787888   -3.45318759178260
C          -5.14006739579928   -4.66051923973891   -2.92284820146450
S          -4.15042053688883   -6.75697869741678   -4.46871897585025
C          -2.42514458893146   -6.82815877964272   -4.56822715445039
C          -1.80127106035239   -5.84945083954075   -3.87680526692674
C          -3.48060226783844   -1.95901937127153   -1.05707916819488
O          -2.48236753935527   -1.37283376964476   -0.71316635401892
C          -4.91401774188682   -1.60749037753607   -0.81826798831291
C          -5.39351379745980   -0.45489151767956   -0.26884613263978
C          -4.67202832792957    0.54913479221839    0.41742722386151
C          -5.12186161358327    1.87479233758578    0.64303885629678
C          -4.07852310504686    2.53695517458693    1.32532227287742
C          -3.06308366919662    1.54725609033381    1.49568693056888
N          -3.44127168750658    0.38535717023719    0.96913762492999
O          -1.90058710178136    1.74598257695271    2.07705679487470
C          -1.02524029010493    0.62425281280717    2.11104003118836
C          -4.50103238719518    3.87539440631540    1.49471241512073
N          -5.74857849176022    4.04497139627903    0.96395073196372
C          -6.12981000383380    2.87225613877283    0.45245459221622
O          -7.28085916043644    2.67149964465713   -0.13999386844990
C          -8.16816598132935    3.77789988103242   -0.19339653142629
C          -3.79847506006076    4.94555226662573    2.07613913839684
C          -4.22001638468708    6.26889865952820    2.15766988593763
C          -3.26618391364786    7.07412720356027    2.75963360130423
C          -2.10939601192421    6.35659087605346    3.15044083556498
S          -2.20333898459621    4.69707787115195    2.76483357993913
C          -1.19830922653686    7.25931614767892    3.74118268481657
C          -1.76889656688875    8.55565946779455    3.71679895011978
C          -3.08636310703518    8.47480218222802    3.10701008716142
C          -3.96687224135226    9.49586790981525    2.90408093206775
C          -5.22749994393367    9.29640097659464    2.30113248071550
N          -6.25325344761905    9.14834981369077    1.81125390900900
C          -3.68187525030284   10.82429542992333    3.28667510690065
N          -3.46210400289751   11.90729004464963    3.59125670380950
C          -0.93455063669677    9.51936685790156    4.26005942441110
C           0.26302648029062    8.97020263272332    4.70736286960486
S           0.35394938507648    7.23637537185590    4.44886410522398
C           1.33169507891105    9.66346034023150    5.30110572300766
C           2.53962791975436    9.14748703042322    5.81559165828815
C           3.27418165559600   10.25419683147117    6.29839626538434
C           2.44225463387291   11.39118013525377    6.02880558068337
N           1.30188861626192   11.02497488217948    5.44859060820383
O           2.75407684954782   12.63211913934759    6.31149288823806
C           1.80287966937802   13.61990673987662    5.94439134768825
C           4.48498025159453    9.74059528401920    6.80624745300811
N           4.49505436563798    8.37590560891303    6.67190309279636
C           3.36032687717569    8.01285925451433    6.08200857484808
O           3.03691009553000    6.76967941545435    5.78908618556560
C           4.00767721931344    5.77889675296352    6.08602622441753
C           5.51843239637315   10.47667586248177    7.42749191011496
C           6.70489087671034   10.00936421454454    7.90361811627835
C           7.33632157603397    8.71258727733103    7.77969809624743
C           7.24815005044967    7.87235506221346    6.70480771611896
C           7.85966562389595    6.60541565834867    6.64396705799705
N           8.30031542565312    5.54890734072525    6.54965988408004
C           6.62624314834532    8.21322252603565    5.48112158596069
N           6.29534350441974    8.45131587732494    4.40704154983998
C           8.25436958759593    8.57374167755050    8.90435234198112
C           8.36935794362602    9.83038509322488    9.55575478438867
C           7.46960666829054   10.80272476312813    8.90812678345487
O           7.33178572382955   11.97711481581128    9.16317394663456
C           9.20473886981502   10.02810272800289   10.62939001691768
C           9.95077288844049    8.93806331252130   11.08714624101162
C           9.81893187025431    7.68646759421461   10.43792638749612
C           8.98156206823771    7.48604994787889    9.34638035320659
S          10.82784837710691    6.48507744348690   11.17913386302242
C          11.40879108579352    7.64409803957430   12.32516017936984
C          10.87583586851811    8.87502131004621   12.16778483309352
H          -1.43634201828832   -3.53600261287799   -2.22824864488353
H          -6.14550009790123   -4.98297061638748   -3.13572552613133
H          -1.97773028111706   -7.61140466692297   -5.14889684529809
H          -0.73359887314284   -5.73557167890843   -3.82473558356884
H          -6.44676049611561   -0.22753000912936   -0.38431982943650
H          -1.27300678350356   -0.00839918093479    2.96585932645683
H          -0.01851108926170    1.02272156064984    2.21891011851918
H          -1.12999077978249    0.03940137423204    1.19606688524804
H          -8.39587111336487    4.12985648565984    0.81409887778038
H          -9.06787385622138    3.41904921301654   -0.68770161962521
H          -7.71781173743380    4.59793254023406   -0.75576157479074
H          -5.17667717335474    6.57571646907131    1.77693612424400
H          -1.13576290146639   10.57091688914519    4.34971186417016
H           2.21786056921784   14.57308527729352    6.26378622879736
H           0.84790952182969   13.42861048311790    6.43689565556125
H           1.64571835814398   13.61011046678977    4.86437103511250
H           4.88429926756896    5.90567325340306    5.44725715294098
H           3.53227134373796    4.82070065856763    5.88887855650742
H           4.31804159582861    5.84811512879362    7.13019339446009
H           5.29595396982107   11.51885894348518    7.62958833205962
H           9.28003424736948   10.99566564106640   11.10098717451688
H           8.90966634557950    6.51526087763672    8.88374393575216
H          12.12505255686025    7.32523299780384   13.05725332733877
H          11.11817459662287    9.71995304403318   12.78659866013220
