136
 SCF done       -248.859680962572          0.000235228512
C          -2.46524926731729    2.39060623488735    9.36341857463684
C          -2.12628499947376    3.60701031362065    9.90050625818495
C          -1.23723263246010    3.77070283234570   10.98300263100293
N          -0.52944638316435    3.97604280514744   11.86367917770610
C          -2.55970649101752    4.86787849307623    9.43969853490076
N          -2.83736811258652    5.93583092591508    9.11924435452670
C          -1.91107088610795    1.10951775942265    9.78388193617875
C          -2.35877867884654    0.11215134772985    8.88471420935709
C          -1.99916020071984   -1.20839768111581    9.00305753830327
C          -1.16326384507184   -1.56442647452435   10.06562138374966
C          -0.72763707811381   -0.56248737587489   10.96469024326039
C          -1.08670366719621    0.77471656071096   10.84112482328224
S           0.28806198673771   -1.22945486064269   12.20445264129627
C           0.12584793636289   -2.81025439049198   11.52082056802432
C          -0.65134305498187   -2.84556628497490   10.41667491358249
C          -3.23697030977217    0.72003421261942    7.86788406445299
O          -3.74287089791131    0.12632095167549    6.93511983892249
C          -3.36022443547514    2.14516756462657    8.24470071300795
C          -4.23613054752386    3.08691490208566    7.76671209746743
C          -5.16390579998754    3.04465338952885    6.71314002287027
C          -5.41343728757626    2.11732008265139    5.70616246900136
C          -6.44950402464097    2.47236464606965    4.85811131797975
C          -7.01485469695973    3.71136471583171    5.21872295166244
S          -6.25520416114345    4.42338940218407    6.57364200909262
C          -8.10834452788254    4.13138488073169    4.42867441278152
C          -8.48298500809163    3.26710745692119    3.39211396323853
Si         -7.35166550008805    1.77220952565216    3.37415924464620
C          -6.28432596365074    1.69324751203673    1.84696823010041
C          -5.47780557724803    2.77470726521123    1.47706740204343
C          -4.68021732830429    2.72149859856371    0.35043768191018
C          -4.66845310973994    1.58227985505754   -0.43786042961676
C          -5.45884169184940    0.49940753469459   -0.09163624740597
C          -6.25588042803465    0.55600153530866    1.03639427189385
C          -8.23343306003828    0.17159362341404    3.73201130529531
C          -7.50650750698125   -0.95327807050660    4.13465837104359
C          -8.13128810326363   -2.16215544333115    4.37376513259955
C          -9.50269960695681   -2.27809809649292    4.21599644047248
C         -10.24354934587025   -1.17687260114297    3.82172498488137
C          -9.61551180162157    0.03158258934331    3.58390583970870
C          -9.58769488534262    3.75750654217220    2.70018573452405
C         -10.06260622836888    4.96167496489164    3.19013655639003
S          -9.10891891065024    5.52829174860694    4.53848196676977
C         -11.19819649724051    5.68800837177702    2.75290679575535
C         -11.69649128918494    6.87278165346251    3.26196280796039
C         -12.87373291880028    7.26338505594912    2.62305594505937
C         -13.27251104003045    6.37004070292234    1.61517695365077
S         -12.19546082125954    5.05430061605585    1.44838102856923
C         -14.49502451454126    6.82531422476326    1.06295899214803
C         -14.87442944208455    8.00557509999618    1.72289989508228
C         -13.86032130156761    8.32882062348795    2.71532886714155
C         -13.84173420795719    9.40044254111565    3.55804955100269
C         -12.79807946390126    9.60880732174652    4.48455650754021
N         -11.95226676428081    9.78079412498199    5.23920120342178
C         -14.86451787809180   10.37246102447001    3.55998370504677
N         -15.69444513670989   11.16347802967835    3.56594630051281
C         -16.09798058634895    8.50800918728773    1.27907667592174
C         -16.65248803050713    7.72161031946920    0.28626733435497
S         -15.63558542897858    6.34267833873322   -0.11456905082278
C         -17.90252924199764    7.88833283128323   -0.36027226775656
C         -18.44118247046581    7.11769615832517   -1.37566523503329
C         -19.72305266970921    7.50779297988802   -1.75550362637967
C         -20.16602508595826    8.60292114995066   -1.00191228408015
S         -19.00226498983761    9.14918497660767    0.14170018782169
C         -21.47584851798819    9.05445932609653   -1.28072771066488
C         -22.17450631416168    8.30372380071629   -2.24150929376517
Si        -21.05389948923936    6.99058218114064   -2.96797606878841
C         -20.71407227694598    7.45408086646364   -4.73897840449311
C         -19.42970134473470    7.71604459839636   -5.22049529204532
C         -19.22299489886905    8.10538861947309   -6.53081593145023
C         -20.29779931218366    8.24940299561164   -7.39153258283640
C         -21.58158474579358    7.99287019507983   -6.93867878521553
C         -21.78212927645018    7.59847503544314   -5.63073211670887
C         -21.61857615272799    5.23251763546184   -2.71495960938677
C         -21.81366559416645    4.71483021673400   -1.42996007356291
C         -22.23347786898036    3.41275104886294   -1.23794513078743
C         -22.47003773120477    2.59215537970670   -2.32889048877323
C         -22.28294619176447    3.08237277320146   -3.61035022492954
C         -21.86197390345292    4.38557128808788   -3.79893134675561
C         -23.41875225517699    8.85194200661100   -2.50168890678082
C         -23.69725729573056   10.00108930841188   -1.76991263481656
S         -22.37810349004449   10.38020358644145   -0.68135333123898
C         -24.84923407165112   10.80923320655129   -1.79355020975508
C         -25.81045678779379   10.87656043022857   -2.76276180333348
C         -25.85320495848885   10.41150705688398   -4.12997263086869
C         -24.78691693298038   10.27492225893521   -4.98568771192111
C         -24.88994362454860    9.84099275292620   -6.32039247801591
N         -24.90128345649541    9.45003072616950   -7.40068874294557
C         -23.45977017958888   10.61285348534471   -4.65387906212259
N         -22.36974332023842   10.91874798555862   -4.46214995633317
C         -27.25663417638456   10.36437045713663   -4.52834288558596
C         -28.03382238688235   10.99819848655386   -3.52501553671548
C         -27.15114478615519   11.41573148465848   -2.41795230807006
O         -27.45412579515622   12.02323151281934   -1.41527401129061
C         -29.39478290199999   11.14731391444085   -3.63370367293734
C         -30.01900748725096   10.63877305787739   -4.77755639346872
C         -29.23565567357917    9.99800170837185   -5.76651179336439
C         -27.85663655303716    9.85494323673905   -5.66279246811894
S         -30.21935263595890    9.43999070621772   -7.08323723338604
C         -31.64052736106740   10.06102841487461   -6.31698286278758
C         -31.39831016261089   10.65760425890981   -5.12971439259573
H          -2.35494616526449   -1.94342260179521    8.29771084828807
H          -0.73090836448416    1.49841636688674   11.55498829358264
H           0.63095042577806   -3.62807742094598   11.99696095872786
H          -0.86500274885155   -3.73941060745326    9.85886453655427
H          -4.25450091025423    4.02623152629651    8.30765225430763
H          -4.84517687621410    1.21023390141407    5.61946554110538
H          -5.48056367444605    3.66613665489962    2.08877894193624
H          -4.06431969696628    3.56847276813078    0.08522928416971
H          -4.04441100872636    1.53892858388559   -1.31835362530679
H          -5.45274791598287   -0.39174458296739   -0.70242495240109
H          -6.86907513267309   -0.29347953122064    1.30224062302052
H          -6.43704047878123   -0.87046635373422    4.26232591893253
H          -7.54859516412707   -3.01698357788539    4.68462496108534
H          -9.99233924731272   -3.22283712753971    4.40177787452275
H         -11.31385823088711   -1.26090004036240    3.69972663986935
H         -10.20178577453448    0.88657167582607    3.27903645695045
H         -10.04600298317610    3.25983864386146    1.86296635600004
H         -11.21849578893316    7.40479228488055    4.06479209294362
H         -16.57899095280341    9.39425849829468    1.65213989391577
H         -17.90803482892931    6.29134433263591   -1.81325274710487
H         -18.58626426875906    7.61662397799828   -4.55197811076660
H         -18.22035393725162    8.30526774560758   -6.88044712258038
H         -20.13747429629152    8.56469812588068   -8.41184639944368
H         -22.42689003073826    8.11136800980364   -7.60059598389800
H         -22.78713343792373    7.39929619099823   -5.28486793954030
H         -21.62947369746504    5.34981041740593   -0.57448317877877
H         -22.37694043588870    3.03437623702867   -0.23619460960266
H         -22.79812724358825    1.57390623405127   -2.18010503341205
H         -22.46493247225013    2.44641797790061   -4.46449320231440
H         -21.71489108534265    4.76140725659734   -4.80148979742643
H         -24.13333924437192    8.40982214060399   -3.17339879934728
H         -25.04335785953474   11.41066914663443   -0.91111326537425
H         -29.96106323356933   11.64190213509251   -2.85990870734809
H         -27.30039385481023    9.35560645480856   -6.43913007686443
H         -32.58413181032802    9.93788643764127   -6.81199714462104
H         -32.15865177585260   11.10013728700208   -4.51196510751757
