121
 SCF done       -243.113463092186          0.000496364373
C         -10.90371901725542   12.90682027730176    1.37769460666048
C         -10.38389311428472   14.15471486534858    1.60093277362762
C         -11.01684588085901   15.14452447593287    2.38314401320958
N         -11.47840423334801   15.99256739702051    3.00394641928414
C          -9.15053838168494   14.64083716936334    1.11614115843859
N          -8.16392735359881   15.12265500103499    0.78008457556866
C         -12.16032170627234   12.40649862996305    1.92449740812219
C         -12.32076121540655   11.05251581742705    1.53429003077315
C         -13.40973347199085   10.29716309104481    1.89748460355167
C         -14.39312979389384   10.90703460868899    2.68170601444112
C         -14.22839670622363   12.26024469544071    3.06443954363172
C         -13.12495532271477   13.02293686694517    2.69892274950842
S         -15.56493978181446   12.80777990167824    4.02555604243342
C         -16.31660836527963   11.25452603627915    3.90993690661907
C         -15.60637931818770   10.36106683765096    3.18701540363878
C         -11.17163795402251   10.64667893791237    0.71376943854366
O         -10.98187700292288    9.54417991636656    0.23245471881531
C         -10.31200588453477   11.83593879377402    0.59133158078276
C          -9.18653302559149   11.93047815118726   -0.17849303393393
C          -8.56433884188549   10.96665992373762   -0.99259834990258
N          -7.51279966240089   11.32636911521377   -1.70167883541900
C          -7.05368007168107   10.32605510733365   -2.42162403942797
C          -7.74239641730275    9.09190494165736   -2.29524575678187
S          -9.04583763320951    9.25989913779498   -1.19785617915933
N          -7.28517392916272    8.08993958099239   -3.03942462723076
C          -6.26345056743330    8.46488701905542   -3.76007543348464
S          -5.76164510526331   10.16910341054002   -3.54580221391743
C          -5.60947635626080    7.61983343179735   -4.67287763524868
S          -4.30796429515761    8.16752909744978   -5.68793824274744
C          -4.17351324276409    6.62908926162228   -6.50212281633825
C          -5.09507096938912    5.74397092273011   -5.97521891868363
C          -5.91046983912583    6.28400568160697   -4.94436702274111
C          -6.83691095742538    5.34241167781115   -4.44440896979594
C          -6.72054158043454    4.13846611956301   -5.07427723722370
C          -7.51180031578827    2.93411861285044   -4.80818972582703
O          -8.38704481647551    2.85933706573373   -3.98354706728320
O          -7.12592376836752    1.93218004252669   -5.61175206281133
C          -7.79416747100615    0.68602952777625   -5.48069186184303
S          -5.48218054044207    4.08939039852760   -6.31161459014780
C          -3.25585904745226    6.43762442717638   -7.56409555409275
C          -2.34565306907961    7.33939081725021   -8.04550737084019
C          -1.61644244884739    6.86908902784060   -9.15971209301214
C          -0.61684578115515    7.54498208082773   -9.89319500984989
C          -0.09685311982768    8.83335810121783   -9.48804650974273
C           0.30643127697393    9.87042068947845  -10.28100378238185
C           0.82584701844963   10.95439611804709   -9.54181963123382
C           0.84120603751124   10.76359120608635   -8.19032611037761
S           0.18756173969055    9.20839286819107   -7.80730389044412
C           1.31721428616321   11.67967906725307   -7.12399284262646
Cl          1.39155197870211   12.39254645416779  -10.29959894481571
C          -0.13885393568085    6.89573701994131  -11.02783200421716
C          -0.56934201966371    5.60380345742207  -11.41992048199745
C          -1.50874362451208    4.89582077406448  -10.64212421868904
C          -2.03053212450459    5.56746813955416   -9.54426518991015
S          -3.24832968332564    4.93869693295405   -8.46824700390713
C          -1.89652228369733    3.54687984017077  -10.99932979201512
C          -1.10248861274084    2.54929805156242  -11.49043114455869
C          -1.82398517834445    1.37151248023298  -11.77880451786764
C          -3.15935196137475    1.44595417123723  -11.51005989884634
S          -3.55041497089424    3.01082122597209  -10.87938841473611
C          -4.20659243741953    0.40974134430298  -11.69297569673157
Cl         -1.06301694401216   -0.03092308720152  -12.42895561032389
C           0.03144399828065    5.19239555684898  -12.63149235170653
C           0.92154831986735    6.09476856798163  -13.13859608024993
S           1.05202967645881    7.52057443875042  -12.13750523891096
C           1.66175347368946    5.95319497129836  -14.35102983795935
C           1.76838212524188    4.81441249066963  -15.09498063594029
C           2.52724751041616    4.97404645150904  -16.27854648779003
C           2.79938898998984    4.01121187484657  -17.27048719428058
C           2.26374686732329    2.66627736248540  -17.21263740197480
C           2.86831988975487    1.50239976206121  -17.59422991668865
C           2.04064891792891    0.37134631890612  -17.42387502810910
C           0.79946832389338    0.64563001262456  -16.92851707872752
S           0.63970941695802    2.34672976946037  -16.65683663588315
C          -0.31006957027961   -0.28733030835212  -16.60931391090786
Cl          2.57209738309535   -1.21978294937829  -17.81256315663533
C           3.60918647733807    4.42698632074778  -18.32568196341862
C           4.11985675311378    5.74159042992077  -18.44182106428851
C           3.81763515253911    6.70969889683715  -17.46761284427559
C           3.04144632327498    6.28892741180021  -16.39386564293110
S           2.53105735443070    7.29119551337004  -15.06321928637940
C           4.27999663384704    8.07857610100571  -17.59476524040888
C           4.27797645508585    8.86752025109056  -18.70804103433995
C           4.80509605046950   10.15471355289816  -18.46265715081428
C           5.21613163069182   10.36141428258514  -17.17854563643660
S           4.94207336371927    8.93794212083169  -16.23159009099246
C           5.81837288298266   11.57732703446616  -16.57604563324287
Cl          4.91148776249466   11.35285661036437  -19.69682583824422
C           4.92719589251871    5.89132333587363  -19.60808206937127
C           4.99475253897736    4.76742339520408  -20.34895418514290
S           4.09870966334450    3.44773184876689  -19.68252350556459
H         -13.49842435497949    9.26869453209466    1.58367158773139
H         -13.04983413974655   14.04955291893594    3.01562950481818
H         -17.25956193957417   11.10401704763471    4.39866468705713
H         -15.91684552565777    9.34759317892097    3.00826999659152
H          -8.66927619555389   12.88140242312389   -0.22061061675951
H          -7.54537505119260    5.54779950497830   -3.66394147484828
H          -8.16596133478062    0.39833409411391   -6.46375090970703
H          -8.62061173182894    0.78151232524772   -4.77387826251056
H          -7.07958063318932   -0.05583184416412   -5.12227280221737
H          -2.23325616071776    8.31785348130325   -7.61594309964306
H           0.20732953568253    9.88968707459055  -11.35003942685075
H           1.64469706375955   12.61708870902169   -7.56633798115146
H           2.15052582123751   11.23555898566242   -6.57994830107443
H           0.52108284341237   11.88278376940032   -6.40871461275100
H          -0.03683079703815    2.62575055430286  -11.60147714484081
H          -3.75163704988031   -0.51889126671002  -12.02877358850358
H          -4.93899838089383    0.73099758374428  -12.43321492963151
H          -4.73326020592097    0.23058588984654  -10.75668400765842
H          -0.22444219445291    4.28115662260834  -13.13692231399179
H           1.33121497715516    3.88337801081159  -14.79089352978499
H           3.87969054187745    1.43487228090941  -17.94860809405665
H          -0.04062285649315   -1.29518498244638  -16.91474184266362
H          -1.22322108505389    0.00955986002280  -17.12359618674269
H          -0.51398755822637   -0.28643922302772  -15.53828619977443
H           3.87879858226752    8.56655399190518  -19.65897557254278
H           6.82192461990573   11.36648982449737  -16.20747530447185
H           5.21898436909150   11.92423383711188  -15.73519875159204
H           5.87502900491695   12.36691048525543  -17.32115802536142
H           5.44399944643067    6.79959790929751  -19.85620750886990
H           5.53231894643684    4.61100824605844  -21.26361079831103
