98
 SCF done       -200.136615701447          0.000431745913
C          -4.91785491611889    2.02399851609320    5.78909630506670
C          -3.72679329908154    1.34135033475906    5.83788365683067
C          -2.95918378732287    1.17099307188225    7.00825264897254
N          -2.28686311315585    0.99165623570814    7.92176243235343
C          -3.09817517325876    0.71167397186365    4.74527596566539
N          -2.52458880996691    0.17551687361109    3.90573798251511
C          -5.56770306940600    2.67274339892607    6.92422729360923
C          -6.78020541589612    3.26072773288389    6.47991187966267
C          -7.62241623606197    3.94869608646211    7.31884984359387
C          -7.25308860640397    4.06294512349606    8.66308194678846
C          -6.04277072753957    3.47303713474886    9.09841649205931
C          -5.18973290588940    2.77716663230960    8.24839099684076
S          -5.78910672907330    3.73778649375845   10.79427504559360
C          -7.27381580842539    4.61780548682797   10.90405758867115
C          -7.93496188091633    4.71324572150118    9.72971715287767
C          -6.93742390980910    2.99964283384225    5.04181986190210
O          -7.86658628647579    3.35543798574923    4.33237438151248
C          -5.76241557208248    2.23072916951280    4.63286292035653
C          -5.52001846730857    1.78440539168872    3.35457816352479
C          -6.28832665119413    1.92078131749926    2.19927824407226
S          -7.83267178446919    2.72350013431264    2.02241456123489
C          -7.94056215174598    2.31822406509522    0.32876307368662
C          -6.82371240861662    1.59546689971053   -0.07403105148141
C          -5.88868934158650    1.37500866030713    0.96105561376198
C          -4.75533308578927    0.66167965356966    0.51570536345856
C          -4.83715490002996    0.35874559153682   -0.81383986734118
C          -3.86789021531493   -0.35380969983272   -1.65207578410301
O          -4.03354530769942   -0.58766367430304   -2.82420900900894
O          -2.77931490353479   -0.70566030588083   -0.95852089741004
C          -1.77589688050512   -1.39528737091852   -1.69024618236425
S          -6.29903504518641    0.92095189195581   -1.58066732511507
C          -9.04848696142418    2.70580240936186   -0.45664491278521
C          -9.34174165181078    2.31999670213207   -1.75442998615009
C         -10.53462157294708    2.86933900585807   -2.22329183126697
C         -11.14945378617966    3.71033917320370   -1.29118469750267
S         -10.26285871234052    3.77924555277827    0.18740250384766
C         -12.30964392126095    4.41458180315310   -1.67971632283811
C         -12.90871561021570    4.10152592783453   -2.89320123647906
C         -12.38779561844492    2.94626506776826   -3.69472031492925
O         -11.00922440006580    2.66798434733642   -3.47052332188157
C         -13.99443147456600    4.92018242716362   -3.18558606223223
C         -14.23483669715075    5.87094456084965   -2.20895644256902
S         -13.08979610393088    5.74069919271531   -0.89612393227167
C         -15.23808083055082    6.86927447872942   -2.20270148253298
C         -15.40504748702742    7.89533170637924   -1.28718466281688
C         -16.48428754960134    8.71335131612309   -1.61241079350034
C         -17.15321981561449    8.30416836236105   -2.77992315862176
S         -16.44424086178272    6.91442852613868   -3.47973529810531
C         -18.21627948579000    9.20175732856170   -3.03520785148858
C         -18.21636325031887   10.18816078324878   -2.02644716960563
C         -17.12758308866304    9.91749073659627   -1.10615642475119
C         -16.76665114091448   10.66315464755177   -0.02257721363561
C         -15.67839983041688   10.31443369760156    0.80408804063854
N         -14.79847501393094   10.02590108341537    1.48008693356108
C         -17.46991716758895   11.83424434085607    0.33074012391108
N         -18.05350541534775   12.78051690875105    0.61164795314276
C         -19.19988666429141   11.15069752164624   -2.21173992301637
C         -19.95853655497440   10.91625858947378   -3.34916112421306
S         -19.45017964552608    9.44762180153043   -4.18000883020369
C         -21.04856107254708   11.65406910724193   -3.85841876343484
C         -21.39659558753304   12.94640307289557   -3.60554402106259
C         -20.70108284632767   14.06522951953765   -3.00514495985988
C         -19.34910374735805   14.29693151411388   -3.01719926173578
C         -18.74876845990664   15.47991027998188   -2.53772802531833
N         -18.20627819919364   16.42194549892006   -2.16998573761962
C         -18.40385245855825   13.43482714611988   -3.60436624304677
N         -17.59598744987795   12.78223674715467   -4.09495503064311
C         -21.70988800634736   15.05217249056622   -2.63528845954356
C         -22.95267273008626   14.66987308654086   -3.20384273120390
C         -22.79134831965544   13.38290416744073   -3.90164629572302
O         -23.61447194554650   12.77102734876058   -4.54405938764667
C         -24.08850949056730   15.43138654363448   -3.06785686538333
C         -23.99690999688181   16.61519922754725   -2.32925428216500
C         -22.75641152459835   16.97617367291975   -1.74950230613293
C         -21.60448003735301   16.21120017496523   -1.89224490683750
S         -22.88257009989123   18.46739472808498   -0.87244087569526
C         -24.55690242814294   18.59735341189748   -1.28595798839463
C         -25.00950874829271   17.57361575655316   -2.04232050714099
H          -8.53736470365065    4.38496584745245    6.94924566714089
H          -4.27893006588453    2.34714253424606    8.63012174323885
H          -7.56414437317724    5.01543895958008   11.85708115682901
H          -8.87328056550664    5.22303900728156    9.60654246329316
H          -4.60305216547519    1.23310178580064    3.19394895992020
H          -3.91479312717896    0.38097584160512    1.12405212612417
H          -0.98067551005093   -1.60915627705888   -0.98131182380596
H          -1.40694862578925   -0.77174873597057   -2.50730039753425
H          -2.17925494132911   -2.31964201143224   -2.10875616884269
H          -8.72398481130337    1.66279221857201   -2.33637297513336
H         -12.47737784198113    3.13907901657248   -4.76694224206951
H         -12.97275526977853    2.04088168992422   -3.45544235808690
H         -14.59229654646673    4.83897164692681   -4.07579615172217
H         -14.75640577181217    8.02661470014404   -0.43970828534595
H         -19.39364465068907   11.96570112076289   -1.53824064213681
H         -21.74427627690013   11.11047904572320   -4.49075591671144
H         -25.01898247949675   15.12329778425667   -3.51886269839220
H         -20.68331790994315   16.51912480093095   -1.42571593521612
H         -25.10791812012970   19.44634959085121   -0.93058111427739
H         -26.02177539252712   17.48551458124772   -2.39316061821609
