107
 SCF done       -219.114788762053          0.000604546522
C           0.27111249135016    0.77488007508685    3.82556306208416
C           0.81673751541612    1.70426429815683    4.67431991059318
C           2.11512774493400    1.61028743820180    5.22038472106891
N           3.15753205651676    1.60441706251078    5.70122912860788
C           0.19381883125196    2.87542436326722    5.15467266893042
N          -0.22999091999589    3.84393819809629    5.60503308480083
C           0.93406318776507   -0.45053799714857    3.39810424008704
C           0.03882700229021   -1.19103267654200    2.58844965164693
C           0.36360986066257   -2.40671338400388    2.03625147329288
C           1.63815550101763   -2.91871462489650    2.29359159987357
C           2.53074674456287   -2.17071344791491    3.09939059959842
C           2.20030689360337   -0.94193807243452    3.65820950450467
S           4.04904598606283   -2.99125982161181    3.28184110887445
C           3.48727981733488   -4.30047648749422    2.30104174087435
C           2.22309244679689   -4.13886139655034    1.85285088737817
C          -1.22953554645529   -0.45852029954535    2.45354264495978
O          -2.19300177340126   -0.82944473327300    1.81604698610314
C          -1.05649625948091    0.79816026117477    3.22485077562688
C          -1.92178985650421    1.85109631405940    3.33881709094618
C          -3.23342970103462    2.04344351154081    2.85941697641164
C          -4.12647229077617    1.22424530383984    2.18028405785550
C          -5.33189634372108    1.86176572570546    1.92302917031889
C          -5.37518244260677    3.18962673450018    2.40859534966928
S          -3.93427617870194    3.63961472107913    3.18603520261628
C          -6.63220104864248    3.74804416941909    2.07731161888686
C          -7.38332307206503    2.78373466145790    1.38204821537263
C          -6.59685886760123    1.56281383736325    1.27384900128268
C          -6.98818976806420    0.39167123278053    0.69679190687792
C          -6.18061607918326   -0.76644940759395    0.65500216192456
N          -5.56346982978884   -1.73070318391616    0.60821280458202
C          -8.26074582811907    0.24893525940159    0.10210749481629
N          -9.29532120595298    0.13492855898651   -0.37895610896517
C          -8.63940162964461    3.24692205227741    0.99974593932185
C          -8.85338839356927    4.55443697407740    1.40218197865555
S          -7.47948856816959    5.22210339997090    2.26762736315036
C         -10.01397337119036    5.33487269615355    1.17446499569605
C         -10.28228342897695    6.61715959499205    1.61873066593664
C         -11.53201416559049    7.06555426558658    1.19170302237932
C         -12.21428366065975    6.11516713430724    0.41042065186491
S         -11.32695527532713    4.67137394854388    0.20998492692108
C         -13.45881236676538    6.66136083251799    0.01884337148154
C         -13.57364741694001    7.95553946739161    0.55563590958635
C         -12.36453084731650    8.25172610208992    1.31170970549400
C         -12.07509147585166    9.40030147571428    1.98730147922083
C         -10.86070455774714    9.57103047791184    2.68547655646894
N          -9.87367338295252    9.71041378805550    3.25154689574714
C         -12.97218640560263   10.48844866950154    2.03108341813125
N         -13.70297027368291   11.37113106580181    2.06319066448642
C         -14.77220634066471    8.57923969975678    0.21614250229950
C         -15.57070264212893    7.77708115959895   -0.58240718300711
S         -14.81963154355729    6.21662084819922   -0.90817949434425
C         -16.84738458816918    8.08197519590935   -1.13409500100637
C         -17.50009226568645    7.22838240821711   -1.99639512040864
C         -18.73363132008715    7.48074990202801   -2.58280294577393
C         -19.46910222430058    8.71365544658993   -2.30276108772212
C         -19.02232234063230    9.68952182388836   -1.47951509263494
S         -17.52582709135048    9.62614961695023   -0.64705897634516
C         -20.66068692451281    8.62315127060123   -3.07229054068063
C         -20.68006291747588    7.42602023992604   -3.79501293276431
C         -21.84212315213854    7.32185879466525   -4.59082552628775
C         -22.64741037519520    8.40793091793267   -4.45195465576349
S         -22.04196783974805    9.59995803854418   -3.35739546841252
C         -19.47444951998288    6.68958959610202   -3.49635761740324
C         -19.03871220729513    5.45463463496552   -3.99999780587805
C         -19.69559112175736    4.64882253429846   -4.89202443187246
C         -19.11694292187643    3.45892691288076   -5.35109762424377
C         -19.57752304218213    2.57355276339964   -6.29413141955917
C         -18.98065215746935    1.21705317132882   -6.33480185720326
O         -17.98501794395669    0.84452118730648   -5.75270553871033
C         -19.87909059618915    0.41472406823231   -7.18997514656524
C         -19.82599917107119   -0.91748097276448   -7.47845663953823
C         -20.82174661845132   -1.48061937986810   -8.30834077988403
C         -21.85925437835962   -0.64671862556632   -8.81577181763926
C         -22.85294094260660   -1.21385986921764   -9.63835412184033
C         -22.81594390654558   -2.54509384008334   -9.94537037533161
C         -21.78875854690719   -3.36838163429369   -9.44387913231825
C         -20.81162478251049   -2.84869728909251   -8.64185611682063
F         -21.77788856001927   -4.67145702380474   -9.76050047756352
F         -23.76138643018591   -3.08183891760798  -10.72993126304811
C         -21.88417416261333    0.73230760147394   -8.50206295270468
C         -20.90242769851391    1.25865467425864   -7.70662420013968
C         -20.64778328485361    2.62922703391168   -7.25574846918612
C         -21.21008757043347    3.74713080466180   -7.82431819490391
C         -20.78196252021087    5.07233486610664   -7.61365893113534
N         -20.46974175522578    6.17476569228380   -7.52852390057039
C         -22.23824811459892    3.70653341275242   -8.78759409113091
N         -23.09313357183715    3.74634879215212   -9.55366819133136
H          -0.34731271152690   -2.94246424149804    1.42657597805030
H           2.91869128364992   -0.41435311382969    4.26254746496272
H           4.14988814299793   -5.12396670519871    2.11794253474534
H           1.70833607250305   -4.84909196549677    1.23150621111438
H          -1.55178516691911    2.70946532771129    3.88699951638786
H          -3.87786150121682    0.21817666905115    1.89203683033030
H          -9.37317521429485    2.67766956665623    0.45791197619659
H          -9.59315276773272    7.17984048758407    2.22271171799587
H         -15.05945394375934    9.56933767597846    0.52131772725474
H         -16.99350342873205    6.30157815653303   -2.23161110835060
H         -19.58159675387594   10.59210427105790   -1.29083912519229
H         -22.08274585712765    6.51187755609080   -5.25232024834316
H         -23.58461546113670    8.59198732073449   -4.93959780939178
H         -18.06166588398923    5.12289891204334   -3.66966159403361
H         -20.67619458652651    4.92587668733723   -5.23750020081642
H         -18.20479734385259    3.13599385283021   -4.85693437775089
H         -19.03462277748124   -1.53405247781876   -7.08012155080144
H         -23.64478672733729   -0.59691698260571  -10.03370860211552
H         -20.03167315367031   -3.49203970631553   -8.26560895891536
H         -22.68641297585809    1.33476501322954   -8.89675003799439
