124
 SCF done       -236.000777223275          0.000768116776
C          -3.85021417316392   -2.15334547410720    0.36541303118228
C          -4.50877592402835   -2.10198234207671    1.57145233736454
C          -4.56154316975750   -3.16901299088310    2.49121543312452
N          -4.64626455743296   -3.99018059395334    3.29006698100126
C          -5.24792702660403   -1.01227513222983    2.07214104218531
N          -5.87051534185936   -0.17575092951019    2.55782595950978
C          -3.13867941691225   -3.32149186813566   -0.14114788090379
C          -2.68988549464024   -3.03931936673591   -1.45371042659462
C          -1.97836779678648   -3.94333445322640   -2.20356648302371
C          -1.68943750647967   -5.18539577760724   -1.62902758792104
C          -2.13865618017498   -5.45700877544114   -0.31584641165395
C          -2.86299027948682   -4.54363182771676    0.44145605806483
S          -1.66176135238464   -7.04635274912846    0.19569718100011
C          -0.88170449826858   -7.32694060058437   -1.32263620341334
C          -0.97012134379539   -6.28476035781314   -2.17738252622770
C          -3.09348953191697   -1.66939895458030   -1.82862937161711
O          -2.88226627068529   -1.14377822472777   -2.90432253506806
C          -3.76854858373613   -1.11132097152407   -0.63980278099139
C          -4.18497626027154    0.17986511919956   -0.42271389341398
C          -4.20585484058098    1.31804366669531   -1.24010023523558
N          -4.60892408973433    2.52029672547689   -0.66608992012993
C          -4.55704874835010    3.48796484926393   -1.60556219673441
C          -4.75140417036309    4.84622815459501   -1.83194602403529
C          -4.44141447872783    5.06251568671052   -3.17940215760224
N          -4.07640958202736    3.87043178300649   -3.76576375319842
C          -4.12212831235970    2.88928967931979   -2.82217431869749
C          -3.90214425888271    1.54167490850954   -2.59803432759974
C          -4.45728326845143    6.27720451919376   -3.92156712820911
C          -4.63317814161707    7.49322775183549   -3.35791841984834
C          -4.64744090809952    8.74008584596881   -4.04620219565669
C          -4.70258768108979    9.02130282636041   -5.38358297417620
C          -4.69670948631016   10.40564976015430   -5.68074241406864
C          -4.81112414187951   11.03246017417529   -6.94045905536074
C          -4.86647982405439   10.28817832264326   -8.18217078091357
C          -5.59965036967685   10.57198337943290   -9.29840903477595
C          -5.35598313794101    9.67226481778153  -10.35888809495872
C          -4.43564195525468    8.70487437153505  -10.08160435083802
S          -3.85580262264728    8.89335534865579   -8.46072574825476
C          -3.94011855115865    7.61016859029199  -10.95374049298071
Cl         -6.16261338295683    9.80251388781902  -11.87478737649747
C          -4.85258015955881   12.42431059941834   -6.94175737068655
C          -4.75125818223945   13.20745258325289   -5.76518176544704
C          -4.65070545520281   12.58525093832488   -4.50668216933101
C          -4.62972022644328   11.19521976225272   -4.50455111203837
S          -4.58197783116729   10.20141683437878   -3.08022898420076
C          -4.60198039798430   13.33284620489759   -3.26645877505249
C          -3.86277412556997   13.06023201385573   -2.15143830418831
C          -4.11372492970065   13.96341228690057   -1.09601633377654
C          -5.04528455392608   14.91919852281700   -1.37805625636602
S          -5.62847814554150   14.71603357559213   -2.99486783461330
C          -5.55403466269898   16.01171427041195   -0.51117415632731
Cl         -3.30210279491412   13.85143066268543    0.41870764538877
C          -4.72972562967974   14.59278187772732   -6.05160819061420
C          -4.84738997892052   14.88316583757341   -7.37808878663173
S          -4.97407897559212   13.43784285305119   -8.35766593743170
C          -4.90125167073185   16.18276256560886   -7.96250460933559
C          -5.26057528158348   16.52699956693316   -9.23417611178190
C          -5.25734259887377   17.92460951922063   -9.45519861755467
C          -4.86061989293281   18.63792863909367   -8.31003178898145
S          -4.51792022321002   17.58150918164550   -6.97571604116792
C          -4.78962835339226   20.02398555731051   -8.24950298097175
O          -4.39777782834053   20.53002467527800   -7.05487039780795
C          -4.78703193309386   21.82335237131093   -6.64532158962954
C          -5.11646860278496   20.71808430485463   -9.42907004085465
C          -5.58193343961070   19.99635956538966  -10.57627046919917
C          -5.65804649503571   18.61505027862115  -10.62145419653421
O          -6.06819760121117   17.81072770809854  -11.63314466773793
C          -6.68123039107878   18.34709518453578  -12.78120137714689
S          -6.00146609842240   21.11073960272934  -11.86621061041860
C          -5.53211219207231   22.49184574881960  -10.90040578893572
C          -5.05418230282541   22.10921700478862   -9.67913962269134
C          -5.62928894272460   23.82559073863674  -11.38478134271437
C          -6.53583006961717   24.32395710454178  -12.26318200526663
C          -7.77560305335902   23.77042242362744  -12.76723601316801
C          -8.60687712804122   22.91967674349753  -12.08403061598451
C          -9.82407587899199   22.42881347665168  -12.59439542834022
N         -10.80830015817407   21.97727029754403  -12.97592394644186
C          -8.37934587131354   22.53120628830812  -10.74788566291327
N          -8.25899394583872   22.26145353795703   -9.63794842370682
C          -8.10981001873080   24.49534209410483  -13.98491982204335
C          -7.24393429198627   25.61530220008672  -14.09702974646208
C          -6.27693272076554   25.60147117396676  -12.98288383859921
O          -5.42315969093426   26.41865167551946  -12.72417114775580
C          -7.35546918008281   26.52865578403437  -15.11759271925830
C          -8.35589832166101   26.32355880651406  -16.07301851690252
C          -9.20395066221844   25.19558302517544  -15.95825464483494
C          -9.09935153285332   24.27468356999607  -14.92244022148646
S         -10.35904364206911   25.14342158226114  -17.25192144850629
C          -9.71556891928200   26.60439036183211  -17.91827284924915
C          -8.68174971368622   27.11204714292764  -17.21268991182766
H          -1.65136430611975   -3.69758326335407   -3.20209850574805
H          -3.17792997007074   -4.79884203011714    1.43922853297016
H          -0.39721341437102   -8.27060616964910   -1.48235900126222
H          -0.54521070720674   -6.27843481633193   -3.16492255753878
H          -4.55139172432171    0.38213033444963    0.57710269331645
H          -4.89652434632510    2.62116176252310    0.29287023913465
H          -5.08292987017681    5.58728463163981   -1.13432670154873
H          -3.78644840274028    3.76756668871056   -4.72299685216639
H          -3.56481916844314    0.78899260153890   -3.27963424336755
H          -4.29165398373666    6.19770569577275   -4.98760295711076
H          -4.74530303936079    7.56063228041080   -2.28534678781128
H          -4.77883692430998    8.25645572282742   -6.13300965572673
H          -6.31635416338573   11.36892848407605   -9.36288411441985
H          -4.38246131450767    7.70343250459469  -11.94236570568297
H          -4.20494068015843    6.63736501849015  -10.53972043834301
H          -2.85533820722723    7.65212091438657  -11.04430994877122
H          -3.13829197470728   12.27025162888428   -2.08492037392145
H          -5.03546592071763   15.99244445824185    0.44406036666756
H          -6.62321425719927   15.89558457251768   -0.33516786825572
H          -5.39564087280616   16.98087519832280   -0.98273853846584
H          -4.62842308440062   15.36114858960334   -5.30776468527256
H          -5.53651677632396   15.81311133803507   -9.98854921301438
H          -4.81897314425104   21.78777737985767   -5.55577758377553
H          -5.77428412642445   22.08889465596191   -7.02896280831964
H          -4.04855832811273   22.57215049123174   -6.94755377818218
H          -6.99206122647289   17.48337938810293  -13.36779318470362
H          -5.98560012280126   18.94918955921113  -13.37213894406171
H          -7.56145796787264   18.94401894973232  -12.52820683191996
H          -4.69793920041238   22.83915824090246   -8.97792385291017
H          -4.85787769347673   24.51417833628324  -11.05434487178431
H          -6.69315123878160   27.37851072014560  -15.17480044483825
H          -9.76397598914929   23.42770590727116  -14.87310965146761
H         -10.15937226662146   26.99828685867473  -18.81182717223021
H          -8.15769422986077   28.01290626393350  -17.47604993527805
