90
 SCF done       -178.792156183761          0.000601445526
C           0.57338852155192    3.70007460861317    3.39212737345827
C           1.01361221646308    4.83392531993163    4.02724224313036
C           2.33771871198485    5.02606667349420    4.47655933517495
N           3.39034190847006    5.25405029164123    4.87435121408026
C           0.25233439351548    5.98431559221374    4.32221977617316
N          -0.27771798599120    6.96634371970677    4.59683251931427
C           1.41221680594272    2.55596864916382    3.05794399887665
C           0.62785307858820    1.60795830590987    2.35695923678992
C           1.13544324967877    0.41829119473827    1.89323628541160
C           2.48626298538403    0.14951749012085    2.13130780640414
C           3.26385791454593    1.10057511348676    2.83519617434459
C           2.74905229682292    2.30281361531811    3.30492068754491
S           4.90378254569885    0.56136947900618    3.01523920099073
C           4.54228007944440   -0.90010958897102    2.16353825601438
C           3.25590343523748   -0.98884023354315    1.76060414322051
C          -0.75096254912900    2.10652915200133    2.22520373007854
O          -1.66755251888147    1.51731437643572    1.69169840042270
C          -0.76935215040541    3.42847190097921    2.89849530733153
C          -1.83680240266758    4.25822385281733    3.10715718521655
C          -3.17464402442116    4.19542593837082    2.67019304063506
C          -3.85939062987162    3.34312227405304    1.81164938935967
C          -5.19002707413450    3.70793356865375    1.66127247645042
C          -5.54063596304221    4.85150737469070    2.41444815966362
S          -4.22978744191069    5.47786548306814    3.29148236066501
C          -6.91323112419275    5.12312048878412    2.20618093914048
C          -7.43727763369489    4.16171906436645    1.32419370583694
C          -6.37017471751349    3.24671379973364    0.94443164550505
C          -6.46066773527091    2.19160905060501    0.08716849387024
C          -5.36133011156718    1.37164319885172   -0.25179047368881
N          -4.49416305959059    0.69011112840209   -0.56289135448376
C          -7.67012796585515    1.83888412448595   -0.55165857746806
N          -8.64098339224035    1.53293228313241   -1.07881878778512
C          -8.79642914399500    4.34681578476398    1.06797714187219
C          -9.30648726632245    5.43733273670493    1.74790830803600
S          -8.08798449836397    6.25146651486599    2.71479838595805
C         -10.65766128928426    5.90996216492922    1.74675047835869
C         -11.08278873447067    7.00942961696290    2.46782777965792
C         -12.41424549018525    7.45059116253197    2.50333143908321
C         -13.43449003259240    6.82693515747164    1.81707241081932
C         -13.04506810194053    5.69681919746330    1.04578463700178
C         -11.67379501341308    5.24570310228340    1.00506481522091
N         -11.63202550485492    4.19526736714115    0.21026865585020
O         -12.87376515109648    4.00047200835621   -0.21891099137817
N         -13.73791638641082    4.88617202873249    0.26794385670336
C         -14.82787280809741    7.21726879387153    1.87628126810488
C         -15.87208347031449    6.40136143827072    1.51271737756953
O         -17.04865875931488    7.00961289681445    1.68737935752719
C         -16.79505504674801    8.24084174444132    2.13833658305721
C         -15.44878165879808    8.45305954431178    2.28276936380305
C         -14.87458108455141    9.71418599692104    2.79519052910824
O         -13.94649669354348    9.76235735251783    3.58699932087386
C         -15.52492031775009   10.92523808229048    2.33210984044445
C         -16.39400676282707   11.15661186311589    1.28637721184250
C         -16.77175210779506   12.49119778966150    1.17073422683481
C         -16.19068316538456   13.30900752550004    2.12555848398406
S         -15.14275312409517   12.40059030391919    3.16460400988975
C         -16.37012042163049   14.71719963720253    2.31404372645954
C         -17.35520311592814   15.43723435594998    1.69059123855097
C         -17.57285141552616   16.80878018111909    1.85818484993017
C         -16.71975704681707   17.60334878545672    2.75517579366309
C         -15.69381639848433   17.09814222917744    3.47252380309348
S         -15.22738416374363   15.44919436268977    3.43786564406747
C         -17.23216843873852   18.92349200618821    2.67896162784772
C         -18.32739940070256   18.96136625880877    1.80871675856798
C         -18.84971496129439   20.27143540046345    1.69460996574148
C         -18.16492424242620   21.15842292098013    2.46136426154375
S         -16.85735005521881   20.45813934131109    3.35363104919523
C         -18.55166492540486   17.63640196534082    1.29480311031262
C         -19.57045392966531   17.20002914377040    0.38321227280846
C         -20.61394632421043   17.91311652518871   -0.04149230788476
H           0.50701904598043   -0.27918196701719    1.36150741850211
H           3.38498782628548    2.99032536316308    3.83650657060094
H           5.32927852555957   -1.61373096309047    2.01489900737098
H           2.85044406919148   -1.82383173427385    1.21849030787137
H          -1.64272640324086    5.13085299403462    3.71974540419141
H          -3.38524419312393    2.49985852977539    1.34163923515819
H          -9.40758579821774    3.73530278371940    0.42938519080637
H         -10.35717683471429    7.55777086328599    3.05160572453572
H         -12.64293056391707    8.30601212205852    3.11922218513893
H         -15.86968137877689    5.39901040761170    1.13488565985262
H         -17.63397789257309    8.86727864368194    2.37023854041001
H         -16.72417293012188   10.38735341335943    0.61198788858563
H         -17.43413055172289   12.84955367795368    0.40403075274413
H         -18.01913947478273   14.89395795284948    1.03395821623571
H         -15.08839812706468   17.70525169800391    4.12721600506147
H         -19.67870016073294   20.56388785307331    1.07744016596464
H         -18.34501000690090   22.21072951499833    2.56510383752613
H         -19.46388355790657   16.18161612693791    0.03072618356362
H         -20.79750924928766   18.91974282996467    0.28580207552275
H         -21.33269555481250   17.49596931186522   -0.72540054555499
