136
 SCF done       -228.918822628852          0.000625555276
C          -4.77982313191522   -1.63789009835424   -1.79222559148250
C          -4.54418973302720   -1.60920376790622   -3.14166111679684
C          -4.43961590523190   -2.76039324174937   -3.95008436606750
N          -4.35174185931851   -3.65840256829005   -4.65979108905787
C          -4.33974969171106   -0.44166869442649   -3.90736964465088
N          -4.14559356996520    0.45602027840437   -4.59700455611287
C          -4.89913340862852   -2.83599065429052   -0.97536358769731
C          -4.97392970815339   -2.44960827403788    0.38562032551391
C          -5.09406134900010   -3.36053997830071    1.40740319834548
C          -5.14329405051173   -4.71651309115086    1.07127067104098
C          -5.07245055205943   -5.09290468195326   -0.29175582444580
C          -4.95020852732966   -4.17265422869943   -1.32538462459801
S          -5.16206558340883   -6.81699330482266   -0.47291712729921
C          -5.28770560702879   -7.01470801426125    1.24082392259343
C          -5.26516197667892   -5.84966128655675    1.92410678054534
C          -4.91409933299332   -0.97916692597883    0.49274405514533
O          -4.96020693884530   -0.33872997718080    1.51994351503912
C          -4.87073412092403   -0.48288728526933   -0.90996813312079
C          -5.11468285315033    0.78785641892611   -1.32626716770856
C          -5.17162340144664    1.99838998103644   -0.55446977730669
C          -6.03867344885132    3.01378611512510   -0.99962664267256
C          -6.14082362744478    4.17812179537878   -0.28489820028666
C          -5.34647360599097    4.38495298544260    0.85807961439198
C          -4.44459986773121    3.41358257803974    1.27147873682360
C          -4.36710624219001    2.22775161646218    0.57047034857830
C          -5.67413772975951    5.67922255028225    1.41244900223432
C          -6.67265944352772    6.27142292328972    0.61713939012051
C          -7.00124634292965    5.39098403299760   -0.56727505656038
C          -6.50019359822589    6.00161115550071   -1.89776885363679
C          -7.10835429026420    7.34253271421043   -2.28682848320404
C          -8.49391583010361    5.03487483522704   -0.63052880839374
C          -8.97201594630545    4.31851466441437    0.62757998186181
C          -7.22564932994177    7.47581113846435    0.97731336101564
C          -6.75965717278442    8.14656741546802    2.11818598931376
C          -5.73938803663934    7.55602189538838    2.87706052675459
C          -5.20288866726993    6.32937413457212    2.54433578408154
C          -7.28228818162289    9.42800540969643    2.54124074541631
C          -8.28241311321858   10.11019384338573    1.95806970856482
C          -8.79945257259231   11.40260624008429    2.35124900548616
C          -9.87879624207360   11.92918916114561    1.62377186873394
C         -10.38574558464452   13.16373791091195    1.94356913362360
C          -9.83200089691741   13.91097540056922    2.99704636769606
C          -8.77123938626636   13.39987873914416    3.73160900326083
C          -8.26715984832696   12.15743150262224    3.40488074537078
C         -10.53984400894040   15.16937610918999    3.08977922600311
C         -11.53515967055345   15.19492984277802    2.09647421424029
C         -11.52085430722892   13.91773095698600    1.29171414716831
C         -11.23068249900827   14.19727450440334   -0.19486433003776
C          -9.92548920234492   14.95361934420809   -0.41137877174966
C         -12.85292598294418   13.15599302744688    1.42299659518610
C         -13.21291946841422   12.83874772799370    2.86938579991035
C         -12.34700226027107   16.29012232111151    1.94932316765184
C         -12.17370856690352   17.40045649039071    2.78939211707567
C         -11.18448191467276   17.36022280220793    3.78177747527034
C         -10.37266634156475   16.25502987307409    3.93778682337179
C         -12.99707760550674   18.57053429051079    2.61359432209086
C         -12.80487096644654   19.83775855740656    3.12546697525760
C         -13.79500491215193   20.73300156642753    2.71307606851819
C         -14.75803535352119   20.13771398521109    1.88385725115459
S         -14.43575182859101   18.48470771615798    1.60965504739374
C         -15.70095405931669   21.12339972410093    1.49887677956971
C         -15.32654080223373   22.34825001612086    2.08757331168777
C         -14.11662921619408   22.14283616504503    2.86545398241417
C         -13.41964284255049   23.08826939124056    3.55938867893335
C         -12.24780443766814   22.77871782996187    4.28011973896756
N         -11.30061794835604   22.52314541858742    4.87376290296571
C         -13.83959838620276   24.43444881813450    3.59547966253742
N         -14.19501422729883   25.52447523688787    3.62234488467709
C         -16.16316979687697   23.39761092275444    1.73185863657810
C         -17.17922082470163   22.99430521939956    0.87737574769143
S         -17.10012025286918   21.26520538501567    0.54429027530945
C         -18.22553007446180   23.75285811450437    0.31240706208119
C         -18.31728374344788   25.10277235672604    0.15168786503159
C         -17.35585832542257   26.18252449952043    0.22004348874507
C         -16.01574950375155   26.11188967499236   -0.06508115478921
C         -15.16078847603849   27.23264253861943   -0.11348181321482
N         -14.42143845128677   28.10834554341605   -0.17332413976722
C         -15.35055501823392   24.93280749144367   -0.45034400054713
N         -14.76973764909797   24.00649926265481   -0.80204857381007
C         -18.10986294314791   27.42374134057015    0.36312808925319
C         -19.48512869812853   27.14950260889482    0.14652251987546
C         -19.66245559832702   25.70380550324370   -0.07285029667927
O         -20.68205996136962   25.10656351652081   -0.33568902698143
C         -20.44342822737602   28.13414021396240    0.16642494959041
C         -20.02838717450871   29.44462180786275    0.42270261734786
C         -18.65637853785713   29.70327091763940    0.65809604754203
C         -17.68436007808529   28.70973380739605    0.63095407033908
S         -18.37802270050296   31.38783011467272    0.96527344384992
C         -20.06320301759156   31.72661329231101    0.77257419199699
C         -20.80734945948357   30.63391433472383    0.49495363050309
H          -5.14783983284789   -3.03424456537520    2.43452975335233
H          -4.90743540514424   -4.50771770059085   -2.34829038331590
H          -5.37306083551979   -8.00812740953478    1.63647590792864
H          -5.33295180850454   -5.77779287642531    2.99455973204744
H          -5.35135049610442    0.92297862489086   -2.37619927778943
H          -6.64028455407131    2.84572715843940   -1.88159941413708
H          -3.81272471650303    3.57930690179412    2.13065472618491
H          -3.65660983367242    1.47726981649228    0.87342591375119
H          -6.69959569563131    5.27686999191610   -2.69021965729615
H          -5.41568396792874    6.11832804318968   -1.82460689223028
H          -8.19142763584595    7.28258934826288   -2.35641739181028
H          -6.72555731412536    7.63980245106502   -3.26082115312154
H          -6.83938117989614    8.11395776728942   -1.57035693031070
H          -8.66839174369231    4.39904825062038   -1.50109140255094
H          -9.07526768062361    5.94853766510676   -0.76090515571228
H          -8.42732459624861    3.38830297213870    0.77332650235610
H         -10.03199009303216    4.08766359641132    0.54837598738558
H          -8.82033543212248    4.94375037187439    1.50493330515517
H          -8.02408432205049    7.90271471610591    0.39253848963865
H          -5.37709429763157    8.07358586152094    3.75418738450958
H          -4.43441473295668    5.88190262215639    3.15667181377363
H          -6.79353007897132    9.84400373226259    3.41219678353352
H          -8.77906775435927    9.68343558734983    1.09644030977472
H         -10.30014784134743   11.35520629910245    0.81018278334687
H          -8.34165578077806   13.96640957144284    4.54438188316657
H          -7.43801904141128   11.76574646851544    3.97314404807937
H         -12.05854207483041   14.77570939201656   -0.61032372786216
H         -11.18952812701110   13.24471171383563   -0.72713934896785
H          -9.95152849848111   15.91852674488853    0.09011980085983
H          -9.76324499047626   15.12255964283322   -1.47333536849546
H          -9.08330235793415   14.38706582805894   -0.02021113047382
H         -12.78007486527379   12.22574736655962    0.85575238119075
H         -13.64595295443458   13.75890276568536    0.97544461697601
H         -12.44424100155516   12.22241433791987    3.33041574332851
H         -14.15665925393773   12.29981929936059    2.91016608850810
H         -13.31329739440509   13.75289151859666    3.45040415530652
H         -13.10799966246878   16.31720931015554    1.18205121462790
H         -11.06082457217357   18.20388932758550    4.44231537435288
H          -9.61693488785052   16.24157558632571    4.70836592147274
H         -11.97276495270416   20.10592938369545    3.74955934539895
H         -16.07488797430824   24.40322901764219    2.10110625116033
H         -19.11188966268150   23.20002267037391    0.01504283220426
H         -21.48147258203457   27.90009532667696   -0.01196828864669
H         -16.65216906853952   28.95059128721043    0.82478046476469
H         -20.39766544025001   32.74001976248646    0.88143754217077
H         -21.87143739497861   30.65229290696562    0.34339559890689
