144
 SCF done       -280.021833648646          0.000387913369
C          -7.91448150751647   -2.59640770729403    1.47007068799522
C          -8.58173082094586   -3.37933950101580    0.56322821566692
C          -8.56253223185855   -4.79029673717475    0.57025075859324
N          -8.59154953472832   -5.93678654985404    0.51760302824836
C          -9.38624945918422   -2.91867938873646   -0.49988411591132
N         -10.05855996442810   -2.63853777462018   -1.38852939400669
C          -7.09761133406761   -3.09479499636412    2.57029131296928
C          -6.59299751561160   -1.99002373189753    3.30150631444038
C          -5.78444942955636   -2.13426369628932    4.40305421118048
C          -5.45678561965228   -3.43209004359473    4.80587745461783
C          -5.96507322155371   -4.53047058691652    4.07132944303021
C          -6.78217428737765   -4.38412019948811    2.95661563499848
S          -5.43367627488972   -6.03788648263859    4.74727402947232
C          -4.55527795366788   -5.20289336170978    5.98125132066028
C          -4.64930204710184   -3.85780890011604    5.89784785494026
C          -7.07429546355620   -0.74188008448990    2.69012782436561
O          -6.83062292030207    0.38667491510312    3.07180591634159
C          -7.89573269344011   -1.14360251895519    1.53292728344794
C          -8.52120686772889   -0.30149928679916    0.65845944137927
C          -8.59560027312432    1.10764329322645    0.63256159730681
C          -9.29842022887947    1.77624491619551   -0.35232606074148
C          -9.29059229383644    3.17286313705444   -0.21804964228972
C          -9.92634076107086    4.13116209184500   -1.04380967615573
C         -10.78960723636557    3.72404966158999   -2.13136393984990
C         -11.71490418258400    2.71829394805550   -2.13439049568191
C         -12.39199892084258    2.60495303533873   -3.36711823861257
C         -11.99390442560033    3.50520902491553   -4.31336545274801
S         -10.75940056432259    4.53557649290990   -3.67310425031045
C         -12.47770075454713    3.66207933977566   -5.70777249043351
Cl        -13.61750515329403    1.42548062624513   -3.63650849032386
C          -9.69567975503212    5.46151761343303   -0.72955995551927
C          -8.93167890381621    5.87623628192313    0.39436131391670
C          -8.33994403324035    4.92091533135348    1.24467278064609
C          -8.51548078685515    3.58145893854355    0.89956872643038
S          -7.86803110057803    2.22135639782546    1.77081464922845
C          -7.60534233964574    5.28610574165207    2.43932508290064
C          -6.50444756190229    4.67759763949903    2.97067588581895
C          -6.08844663775892    5.25945863795275    4.18789176284828
C          -6.85974444767117    6.30079346708198    4.61290715405492
S          -8.13410238510266    6.58809980137339    3.47656361354064
C          -6.71664734978173    7.13173029486880    5.83507163562129
Cl         -4.71628855988317    4.68724273255198    5.05406938389564
C          -8.87320183859283    7.28586004610174    0.49006557133713
C          -9.57455887078579    7.93648752082540   -0.48525962877295
S         -10.33927971685238    6.82902896989531   -1.59807680284232
C          -9.72772192117740    9.34788613593186   -0.64476937112768
C          -9.41290619701688   10.30571069732961    0.27802075232961
C          -9.68999182136360   11.63113102529338   -0.14998646656779
C         -10.22889825050954   11.62724873258116   -1.46362052050057
S         -10.38777407231780   10.02264772084122   -2.11393798506305
C         -10.60599383234931   12.74618533610055   -2.19582205153850
O         -11.08262417454629   12.45070763867212   -3.43478590646399
C         -11.56481724063747   13.44900706458082   -4.29775942984871
C         -10.44570192783856   13.99550947551760   -1.56954991202068
C          -9.92469605185655   13.99684099152013   -0.24873429965805
C          -9.53891719334520   12.87923381184657    0.47985647911097
O          -9.06396875449189   13.17587445836297    1.71950105649378
C          -8.65279618111568   12.17244170334722    2.61251021309759
S          -9.80213634803987   15.59619211931767    0.41988060307560
C         -10.43498453076763   16.27621556838107   -1.05916204886165
C         -10.71837456512122   15.32281900578542   -1.99665954828651
C         -10.62258325888635   17.68689686167910   -1.18807974930150
C         -10.91181425987641   18.39511304162115   -2.31997997739192
C         -11.05805068143864   19.78516123342489   -2.10068887037553
C         -11.35170689704647   20.78255509662555   -3.05368291126784
C         -11.67471543325762   20.43367137149088   -4.42198514535946
C         -12.45528382668039   19.40271798425222   -4.86066274520769
C         -12.54557109885735   19.34946724766729   -6.26834557526284
C         -11.84391589284766   20.32345875130634   -6.91674546679539
S         -11.04927279207248   21.34669456761554   -5.76745019130809
C         -11.71465373108145   20.56509255645710   -8.37579468522809
Cl        -13.46843576990992   18.14223025541195   -7.08219032797205
C         -11.32487343056099   22.09594000238375   -2.60227407864697
C         -11.05196641273182   22.44575242886936   -1.25276905058437
C         -10.86699550264781   21.44222809480421   -0.27357008046271
C         -10.85173071482320   20.13166659864478   -0.74146327833737
S         -10.52102085749831   18.71634489644158    0.21984971585223
C         -10.81014673565541   21.73103571807239    1.14323312700605
C         -11.37206971999329   20.98742599021498    2.14524689024269
C         -11.21427660408962   21.56697978671781    3.42054416456505
C         -10.52395546699094   22.74456651992388    3.42839660114183
S         -10.05043794148234   23.15125422386165    1.81575821650277
C         -10.23398559697562   23.65197392171540    4.56305439736164
Cl        -11.85411117987491   20.84440839999204    4.84367100181347
C         -11.10873694060087   23.83726187139237   -1.05858515391259
C         -11.46892652734322   24.55193442906459   -2.17215423300136
S         -11.68116931439632   23.50180828346702   -3.56118037477273
C         -11.61930598611945   25.95126317219984   -2.31655305346015
C         -11.66689476400735   26.91778143391213   -1.35811610483359
C         -11.76062062020094   26.88885038444868    0.08714927187885
C         -12.43770200670925   25.97557369302974    0.85612896983103
C         -12.45429315001829   25.98408982957175    2.26296943255967
N         -12.45115005540152   25.90682261422160    3.40953939554494
C         -13.22206504193134   24.93247259734910    0.32266872857495
N         -13.90514990172305   24.09504615032647   -0.06371328769115
C         -11.21374623332514   28.14823626812850    0.57979740151600
C         -11.03925845487164   29.02896611630608   -0.51890409639322
C         -11.39407708534002   28.32672283518378   -1.76579771558364
O         -11.41291068667567   28.77009061810677   -2.89068144391487
C         -10.58744631252390   30.31727275183991   -0.36450254344833
C         -10.28127048549961   30.75226313488654    0.92884974615614
C         -10.44263212937313   29.85963139311595    2.01570415284049
C         -10.90976816189379   28.55957984238686    1.86266726211084
S          -9.99156137946756   30.60711718030251    3.51534071759774
C          -9.60557661109075   32.07942045425571    2.69372801531884
C          -9.79954328193231   32.02116224917535    1.35825093257261
H          -5.41771959578985   -1.27078399764393    4.93608846447905
H          -7.14099970182362   -5.25388548051190    2.43254773095287
H          -4.01354960529774   -5.78108683496780    6.70438750784780
H          -4.16990847786480   -3.17709067947138    6.57782347281927
H          -9.06462575511330   -0.76032567572481   -0.15886895953312
H          -9.78418067737146    1.25660072427648   -1.15866800671518
H         -11.94574065941911    2.10919116576227   -1.28014923908969
H         -11.67962369807093    3.44502621405823   -6.41756796801217
H         -12.81404459269683    4.68294607224189   -5.88349348106029
H         -13.30359702508626    2.97837072042224   -5.88766197065524
H          -5.98090975317436    3.86195012914279    2.50904343895819
H          -7.61907984175258    7.07939864543237    6.44325618619815
H          -6.54853913531218    8.17631723314147    5.57369700417370
H          -5.87347520117513    6.77457419935748    6.42090578416502
H          -8.30929999150834    7.80421848257444    1.24165925671120
H          -9.01232464388675   10.03888360984650    1.23593311731622
H         -11.91451726893617   12.91608935801977   -5.18154333244977
H         -10.77251841236621   14.14414662081891   -4.59101808865970
H         -12.40269382411819   13.99444110004238   -3.85415155860151
H          -8.34872880826436   12.70332527073066    3.51432239520158
H          -7.79792166903256   11.61251731832790    2.22186891325550
H          -9.47197498823924   11.49026200924695    2.85763949424242
H         -11.12236288559823   15.58999535897578   -2.95320875437822
H         -10.97742918974733   17.94560288605211   -3.29272847209612
H         -12.98698898712563   18.73268504935694   -4.21075176168252
H         -12.28498027242913   19.81943004222627   -8.92408970824858
H         -10.67096596882737   20.50976647533705   -8.68344884962342
H         -12.08718217209958   21.55596910553770   -8.63316791195703
H         -11.92715727297862   20.08230395905672    1.98552495959606
H         -10.93175364961116   24.49304072912066    4.54715004809065
H          -9.22302634799606   24.04902484993316    4.49518844404649
H         -10.35353614489450   23.11873513176122    5.50288584946571
H         -10.83802298588842   24.31150328494737   -0.13641614383266
H         -11.62673995827572   26.32435620041964   -3.33617313422370
H         -10.47427943376274   30.96983894254607   -1.21618257251087
H         -11.01186659429528   27.91338814191447    2.71875253289056
H          -9.25067935902146   32.91025979479377    3.27197259163454
H          -9.61248522111910   32.83926114636599    0.68655190871666
