118
 SCF done       -238.322717795681          0.000531509592
C          -2.26101342528833    4.59576052035407   -2.80227043601514
C          -1.10067461168643    3.98947292130796   -2.39020092038840
C           0.17296412437199    4.26982938117528   -2.92708948082314
N           1.23709758562388    4.44957715197307   -3.31920747117048
C          -1.00017362247742    3.00798795302102   -1.38301821026073
N          -0.83659621062160    2.20652169501734   -0.57608804461268
C          -2.35646397258262    5.61499814484829   -3.84316435908061
C          -3.71496248333914    5.99921347089570   -3.98098774512346
C          -4.12983565097504    6.94626375453414   -4.88548084874155
C          -3.15927671698136    7.54436805275369   -5.69539699317096
C          -1.80640857644168    7.15479796547357   -5.55208009573299
C          -1.38648457145682    6.19657103466391   -4.63587571657016
S          -0.78270829870822    8.02098886670144   -6.65287672085192
C          -2.14530627458963    8.87971631382031   -7.28264150857562
C          -3.31623519208550    8.53934416842285   -6.70097445265313
C          -4.52822080296618    5.22955649108118   -3.02850155865128
O          -5.73799213002642    5.30848542899353   -2.87527791607301
C          -3.60107540865348    4.35711949904347   -2.30642491914497
C          -3.95828043451705    3.45806720304500   -1.32990578658405
C          -5.21705155031655    3.14918331989919   -0.81206272843433
S          -6.75967456502440    3.84260559058757   -1.26459599367359
C          -7.63250131253822    2.82926448410089   -0.14707727844374
C          -6.76267425131506    2.00038543024033    0.54224580413630
C          -5.40532107937995    2.17022171193381    0.18459575412436
C          -4.55401916075261    1.31168742482997    0.91328218540592
C          -5.25305562014962    0.52813629467383    1.78815772584624
C          -4.69616286897003   -0.47121017538324    2.70449950603360
O          -3.52642129943119   -0.74011906212626    2.80298238209173
O          -5.66883997033788   -1.05044910562214    3.42403669987109
C          -5.25323566705137   -2.03922082630605    4.35301930874488
S          -6.97708405900426    0.79392187126031    1.76614200904266
C          -9.04306398186057    2.89369531007213   -0.03700453729538
C          -9.88551343084506    3.76109230425514   -0.68009164019095
C         -11.24958948170889    3.55712004701119   -0.37773463246493
C         -12.37040080080751    4.25147048161458   -0.88363441805608
C         -12.25608814408308    5.31515901339170   -1.85933910103825
C         -12.99370704792782    6.46424398191022   -1.93190055880804
C         -12.65091440083739    7.26351370892415   -3.04180369107257
C         -11.67202896168958    6.73723455407565   -3.83571390796006
S         -11.13980884708096    5.22342563140487   -3.19557700430443
C         -11.06763608081888    7.31615596468278   -5.06188489657893
Cl        -13.41049936015235    8.77289229936379   -3.36680243407678
C         -13.61346417700836    3.84534167315757   -0.40981494927249
C         -13.79238765798582    2.78178738562784    0.51136611046838
C         -12.67474998453876    2.08187247688523    1.01065710299910
C         -11.42945303320790    2.50501167870678    0.55795846589244
S          -9.90877096954480    1.78479305014975    1.00534283940309
C         -12.79053113924908    0.95692112581124    1.91570646786693
C         -11.95912454640158    0.62469548703274    2.94739924657194
C         -12.32402876528624   -0.58407670608389    3.57792250839758
C         -13.41833739357748   -1.19610682396233    3.03965101204883
S         -14.03139970025210   -0.25456370288621    1.72326951329665
C         -14.07103208254729   -2.46598179593048    3.44508533452526
Cl        -11.44388823312648   -1.22175786722956    4.91231368824162
C         -15.15711223413091    2.56732236036501    0.80846072485097
C         -16.00530450731718    3.39471076581513    0.12740823407425
S         -15.14488844469464    4.51429203285341   -0.90701147678468
C         -17.42495054650301    3.41095183425458    0.18818035108112
C         -18.29259450483736    4.22955937567736   -0.50874134460917
C         -19.62666184370237    3.94638598710230   -0.21300696578048
C         -19.77008147953932    2.90436125851995    0.71891948446400
S         -18.26675118851628    2.27547568231087    1.22935598225363
C         -21.15106117402000    2.68739501377759    0.95180772283210
C         -21.88232344206518    3.59404970496354    0.15879110170943
C         -20.94965986995120    4.41956415160313   -0.58984043803227
C         -21.26182961346196    5.43676115865661   -1.44257400730225
C         -20.27427421481110    6.18424608294868   -2.11810419468790
N         -19.47541854369809    6.78835582724550   -2.67581222632124
C         -22.60244670247121    5.79386249258101   -1.70071319786627
N         -23.69662479868770    6.06806635528157   -1.90664849142467
C         -23.25561029590200    3.47727543260327    0.32998739349464
C         -23.58868521333051    2.49406456473918    1.25055348683828
S         -22.15846550659374    1.68458628092879    1.88443338364548
C         -24.86230350852213    2.05502468581579    1.67196946130159
C         -26.07051624834141    2.67187875706524    1.55767170664429
C         -26.48018062425892    4.02389697840549    1.24042085813812
C         -25.78869362627646    5.17729933457148    1.50977930133303
C         -26.30939165942052    6.47220893282539    1.30423693171449
N         -26.68639916453570    7.54681974618033    1.16367451093798
C         -24.52091116570550    5.20862690222784    2.12060998107015
N         -23.49911103893558    5.27988849608732    2.64014415089594
C         -27.88260227897955    3.96674061153299    0.84184589710667
C         -28.38974406917040    2.67522816383505    1.14021521709658
C         -27.30373479198090    1.84035753394477    1.67950182227848
O         -27.36554768529326    0.70513397539214    2.09342370461784
C         -29.70058564941218    2.32950223498640    0.91488255895665
C         -30.54453875259172    3.29588443327289    0.35926017749646
C         -30.02297528833282    4.57519097197290    0.04764716407042
C         -28.69939636068786    4.92961001678327    0.28296312791961
S         -31.24121255505123    5.59937515700099   -0.64191613344490
C         -32.41542316189384    4.33688771024667   -0.50469521402212
C         -31.92551380653148    3.19662518153623    0.02889253400416
H          -5.17135785807008    7.21640582035693   -4.96561197164677
H          -0.34377675181057    5.93586103855721   -4.56675478406548
H          -1.98215862475777    9.59808726110545   -8.06236696685116
H          -4.26610444000543    8.96875178079264   -6.96358254991395
H          -3.16184106768064    2.87885307261855   -0.88134194186400
H          -3.48428013503797    1.25600348992222    0.81896101699969
H          -6.15730450338928   -2.39767037254943    4.83800014563160
H          -4.56848804949933   -1.60643973537214    5.08524995078957
H          -4.74379752891815   -2.85461140749490    3.83540817020835
H          -9.51527342383222    4.52159496038203   -1.34235993817427
H         -13.72734238459337    6.75982937193771   -1.20542072782950
H         -11.80701544977446    7.91282295336524   -5.59236928036090
H         -10.69931644211573    6.52931664708289   -5.71564000110875
H         -10.22981999121228    7.96515739382866   -4.80232493775867
H         -11.13601652136100    1.22864825886694    3.28023665740093
H         -13.51078320465807   -2.92076728469486    4.25801744266550
H         -14.11098140650163   -3.16191502649835    2.60798719348928
H         -15.09247482713613   -2.28403918899528    3.77838097771115
H         -15.51215867373853    1.82981051307658    1.50468481114867
H         -17.95259824455238    4.98537828734202   -1.19384900488850
H         -23.98985778935951    4.04130407504678   -0.21560362408048
H         -24.90583451899750    1.05309156186395    2.08936914288238
H         -30.06295779600284    1.34317611809241    1.15970525655897
H         -28.34241782999981    5.91203451704241    0.02123763393098
H         -33.41650327857217    4.52988396916868   -0.83826928333981
H         -32.50803740010495    2.30756948583136    0.18949062242799
