109
 SCF done       -215.264755891002          0.000685722682
C          -4.43214204274929   -1.77680500788955   -0.95295829438516
C          -4.59150858731869   -2.47445243001886    0.21691962147979
C          -4.24329890099348   -3.83186547390529    0.38205020429411
N          -3.98397829311457   -4.93129496895679    0.58764669616473
C          -5.11156641008057   -1.96446565045536    1.42479028073553
N          -5.51876780765354   -1.63870551196942    2.44883832328415
C          -3.87671410179898   -2.32049332186115   -2.18675001926624
C          -3.84042400011797   -1.29298388397877   -3.16276917383331
C          -3.36742209247874   -1.49441460618976   -4.43684668417474
C          -2.90922749067832   -2.77284019996546   -4.76801321190156
C          -2.95010303437827   -3.79438822428414   -3.78871622235538
C          -3.42662609209719   -3.58970715646359   -2.49929314547393
S          -2.33778600345453   -5.29153113125234   -4.41730245577033
C          -2.03997382028876   -4.55351299565362   -5.95256010470532
C          -2.37891182648887   -3.24661319994621   -6.00075940985190
C          -4.37911806306261   -0.05260603609510   -2.58352015844871
O          -4.48217462624519    1.01928240991670   -3.14806888805805
C          -4.76458911886358   -0.38269072263100   -1.19867540482225
C          -5.35815610073548    0.46258918722298   -0.30542679951449
C          -5.73609362825880    1.81647162573840   -0.43300852661050
C          -6.35687863597202    2.48826191235025    0.60456558129171
C          -6.67146122506303    3.82498737401107    0.31954731671396
C          -7.34308768289828    4.76526141573376    1.14030475204654
C          -7.72042395049416    4.47875369334848    2.50682457943910
C          -8.82767352300499    4.91167470645312    3.18339126435753
C          -8.84221574066919    4.49401261536686    4.52970814417439
C          -7.75430413546695    3.75947960327357    4.90738936377988
S          -6.68390539184728    3.55894549809316    3.56654145491748
C          -7.46038359005562    3.15507101681275    6.23104122083370
Cl        -10.12473057381834    4.88765712377748    5.60785872224156
C          -7.60053560408913    6.00352719050128    0.56723958701377
C          -7.19639021725655    6.35704952962658   -0.74757864413960
C          -6.53203701893635    5.41908665411228   -1.56073663360452
C          -6.27771415916893    4.17064459418918   -1.00094975249958
S          -5.51775492334153    2.84454851690711   -1.83115784033667
C          -6.15152882003170    5.73921070038243   -2.92209799255722
C          -6.88714869906454    6.39396379807588   -3.86871342114738
C          -6.20271702794071    6.51838007544710   -5.09626605077657
C          -4.95037552826471    5.97497318421721   -5.10081825398139
S          -4.59747287232004    5.27857093256020   -3.55768207391585
C          -3.95804891349675    5.94130013973935   -6.20499327291996
Cl         -6.90367367487180    7.28905257102297   -6.46745791540961
C          -7.49535402358423    7.70590744634620   -1.05205241908002
C          -8.12768013260755    8.36715874184226   -0.03667209668677
S          -8.38039764198995    7.34561853321857    1.36327518945325
C          -8.58648183602727    9.71504158258550   -0.01908483079163
C          -8.43204350220433   10.69135293202039   -0.98291396358385
F          -7.77556843353101   10.49798831908339   -2.13400113451995
C          -9.02575923052286   11.91631674915205   -0.64971527051186
F          -8.98133393162538   12.98476553899948   -1.46078633514088
C          -9.65934987304956   11.91652200212435    0.57745687023293
S          -9.49202556731595   10.35535262349738    1.31914046123768
C         -10.37338222201397   12.97132512384349    1.21238568406353
C         -10.55907641629505   14.24712374090366    0.76332946824072
C         -11.33791900518514   15.06489109627382    1.62138038412204
C         -11.77154208254148   14.34140565243144    2.78353633472560
S         -11.15533626542847   12.69540550731543    2.74719236079908
C         -12.57527606931714   14.89199517823530    3.76616253613715
O         -13.05587031275290   14.32862006243963    4.90584135809794
C         -12.77345222055007   12.98951078796043    5.23294880581615
C         -12.96715855188072   16.23537397142963    3.57892683412440
C         -12.52833756491007   16.94798023783834    2.45075821503502
C         -11.71590313137697   16.41046995771062    1.45903114916206
O         -11.42187367581628   17.28447207764320    0.46119308742401
C         -10.45492958246309   17.02059924535513   -0.52497953258925
S         -13.12774613781822   18.57834471250498    2.44893623547183
C         -13.96940829203166   18.29644944432306    3.96214183438773
C         -13.78463566622036   17.02200075223013    4.42312316095019
C         -14.73510849458862   19.33669095241657    4.56435505051016
C         -15.48492851092318   19.27503776911777    5.71638517963731
C         -16.10569050252609   20.49369759743036    6.00736114455751
C         -15.83291799273392   21.49902892819743    5.07732401768531
S         -14.79418154611476   20.92671311679387    3.82394914283567
C         -16.47470839637129   22.70167879789539    5.40671862341606
C         -17.23151737572519   22.60343136307587    6.58317763655660
S         -17.15891255513261   21.01804258441818    7.30038941074834
C         -17.81973354804179   23.85521765375318    6.81350654940884
C         -17.40243070576895   24.65973680746401    5.77866354877469
N         -16.58820877002282   23.96991607229244    4.93081633126355
C         -15.97848772513583   24.45988539992256    3.72770325195965
H          -3.35412728135550   -0.68905316067184   -5.15471744841790
H          -3.43657630992875   -4.40221469886639   -1.79245304537584
H          -1.62180786468045   -5.15400752720209   -6.73689591536428
H          -2.26423365363049   -2.62613984058068   -6.87100738859047
H          -5.59795503581068    0.05530483373652    0.66940579538797
H          -6.58570945986930    1.99909359550617    1.53389943051793
H          -9.62789443120716    5.47336331036924    2.73914230076425
H          -7.86623030990691    3.78106574539261    7.02313579057196
H          -6.38822183314102    3.04274393030064    6.37090184511116
H          -7.91954541750896    2.16856660606798    6.30919122679006
H          -7.89416632030638    6.73725899836986   -3.71961274399846
H          -4.44853074655782    6.17146350848963   -7.14772193923460
H          -3.49486032427426    4.95907536942146   -6.26980256530667
H          -3.17028313615122    6.67587515507870   -6.03560169009915
H          -7.22974240783139    8.17189798294705   -1.98161202369402
H         -10.14707494238678   14.56748898880472   -0.17172728864788
H         -13.27936590306350   12.81694737019276    6.18233201840893
H         -11.70158731464295   12.81846990424435    5.36240703900273
H         -13.16795334567258   12.29581479658717    4.48599590532884
H         -10.31144459527192   17.97071777551561   -1.03974690465843
H         -10.80628508449765   16.27860987001161   -1.24806720027285
H          -9.50459947081687   16.70347208987697   -0.08750358534286
H         -14.20885037776763   16.64191063954279    5.33270773554724
H         -15.58107894324070   18.39037726365309    6.31686984366652
H         -18.46058769784265   24.13511431020570    7.62411608265947
H         -17.63373502245874   25.69066256102396    5.59405766736763
H         -16.05353827070885   25.54536097571709    3.69850147397118
H         -16.47275522393267   24.04432542654731    2.84530831123318
H         -14.92676783451030   24.16994961239765    3.69862623644302
