132
 SCF done       -257.814137606232          0.000527247477
C          -6.61061325009717   -0.31241916271664    5.46438722607127
C          -7.59612480523061   -0.92875091678254    6.18775228118181
C          -7.37439872420849   -2.02491034395660    7.04725688247119
N          -7.25192686772319   -2.91897974601673    7.75661802233654
C          -8.96614706584479   -0.59367382759934    6.12624129050740
N         -10.09781907933790   -0.40255594951563    6.10053794788314
C          -5.21518676140773   -0.71844872170748    5.39777614200465
C          -4.57246764859278    0.04410674652301    4.39055371427384
C          -3.24474379121189   -0.11849779073432    4.07385710985399
C          -2.51744387545383   -1.07763786489544    4.78419801210324
C          -3.16642966929266   -1.82939978141542    5.79354225086071
C          -4.50879232616931   -1.66566171643435    6.11422471701941
S          -2.07452402878249   -2.95202460728765    6.54051536152362
C          -0.78722874413388   -2.42064929650881    5.51446053317189
C          -1.14904230134158   -1.44656892239419    4.65141675761459
C          -5.53642137851181    0.97171549940440    3.77652055796070
O          -5.29803704109719    1.74090660090731    2.86699942882209
C          -6.79744349470928    0.79647187348376    4.54136255881712
C          -7.85067520044200    1.66085567869244    4.57566141250208
C          -8.10141230391496    2.73047730259618    3.68058387021783
C          -7.74549169098339    2.87171972638701    2.36621733067680
C          -8.10558881641897    4.11795213403112    1.81245931860043
C          -7.78651310376204    4.61413848036035    0.52955300063823
C          -7.01043727127249    3.84078595068363   -0.41537294051117
C          -5.98707569255672    2.96494691071176   -0.18275869963600
C          -5.49229858247957    2.37702180977900   -1.36618958019665
C          -6.12249549392891    2.77688071866084   -2.50877946431882
S          -7.35921710812767    3.92464565501449   -2.12694971649619
C          -5.86933453496171    2.35873995066575   -3.91002205913556
Cl         -4.19345697433612    1.24642708696925   -1.34815769099538
C          -8.26525854857813    5.88610506499492    0.23585163791442
C          -9.06342651225352    6.65138310130792    1.12051901254106
C          -9.32910549230837    6.18350045110712    2.42389240442371
C          -8.83854363996048    4.91499001544826    2.73084510093676
S          -9.00792390051189    4.11578656015497    4.26337892468195
C         -10.01105320729665    6.99894083822320    3.40626430962207
C          -9.93900395057067    8.35542861180263    3.56799376622284
C         -10.68623769421130    8.81852115971808    4.66697392625463
C         -11.35385456437611    7.84275943201428    5.34929700818631
S         -11.03576458292581    6.30342317196887    4.63462327638643
C         -12.20540629493898    7.97856911307177    6.55476517671582
Cl        -10.74006249727531   10.48194065165863    5.10510210428798
C          -9.45973695580853    7.88162965631659    0.52759966645109
C          -8.92372412522287    8.09817606352242   -0.70130653003124
S          -7.92193806320665    6.76586704062751   -1.22954212213185
C          -8.94787732453750    9.33817910607191   -1.45835555515041
C          -9.36248388407827    9.52271492333075   -2.75925149370767
C          -9.99592010323117    8.65477322736722   -3.75498360666991
O         -10.16639225328831    9.07112440241247   -4.88131958693229
C         -10.44321038083419    7.28485594719807   -3.32408047226469
S          -9.16119962736004   11.17173270651083   -3.27359786031471
C          -8.55110349193688   11.60872832280802   -1.74484420745866
C          -8.47093071722289   10.55574252010642   -0.87261154116593
C          -8.01853867178200   10.66120828713829    0.49797990166651
C          -7.33733157893682    9.74172000484698    1.23226913011962
C          -7.22857690848295   10.07329612256432    2.60707070892748
C          -6.72084929732982    9.27382480844734    3.65100770585627
C          -6.21784126664490    7.92714679041997    3.46841724435633
C          -6.36327436549850    6.88100378761562    4.33755431338412
C          -5.65122359670544    5.73065201011840    3.94054017022765
C          -4.97991947466471    5.86093815062035    2.75990597819591
S          -5.23202840337093    7.44607331538239    2.11311911239835
C          -4.10634243583973    4.87387479293974    2.08157775794576
Cl         -5.58945516544603    4.30963433597137    4.91150116888506
C          -6.79173548002957    9.82376878247076    4.92741311532870
C          -7.36710457477221   11.08682195025133    5.21564770728847
C          -7.90772510220007   11.86782131408574    4.17274346868740
C          -7.83078084422334   11.32413057160945    2.89465617912541
S          -8.49453710044473   12.04636879074265    1.45375228036402
C          -8.52387597666261   13.15736430304732    4.40187361077462
C          -9.64778959890578   13.66681037693317    3.81690304660586
C          -9.93696547233116   14.98065567164250    4.24264964309200
C          -9.04223852185073   15.49728038089292    5.13478232998365
S          -7.81324740700412   14.32941414689530    5.48030711210351
C          -9.03551344248928   16.83418980368346    5.77934639355969
Cl        -11.30662771171015   15.85028445858090    3.66824005488177
C          -7.36277227261682   11.36118395536409    6.60151740478001
C          -6.79893182971349   10.37173328524912    7.36411491678211
S          -6.18906868275385    9.06508410665882    6.36891413268682
C          -6.62989335234735   10.39909464190030    8.77344348072794
C          -6.27023608802742    9.39394368067942    9.61130537475606
C          -6.15873732265339    7.95920304710130    9.42779368974308
C          -6.99049455153921    7.17193295109869    8.67646477789397
C          -6.86795133209764    5.77212709491274    8.56353596324412
N          -6.79966308607243    4.63603389583930    8.41391210066961
C          -8.13158413913254    7.66319834473581    8.00865726756523
N          -9.11341267168753    7.99298931033101    7.51291159521810
C          -5.19389349652276    7.47716382018348   10.40667488188095
C          -4.93549736270605    8.51727690796992   11.33800848568905
C          -5.67610586438511    9.72823540381432   10.93850894085126
O          -5.74546204241628   10.78740907152959   11.51695340031137
C          -4.09668041649666    8.34716520037877   12.41322928437365
C          -3.47839271173461    7.10281785156239   12.56947751331889
C          -3.73421640225631    6.07713509192754   11.62695233491336
C          -4.58976757726572    6.24312410825175   10.54428405951347
S          -2.85365808651773    4.63341281452952   12.01519042546875
C          -2.16929385686223    5.39586720629288   13.40902749835269
C          -2.57414321320106    6.67285966437385   13.58149369899961
H          -2.78342779325434    0.47318005320455    3.29814235279397
H          -4.95807669484385   -2.25782618034474    6.89401530292690
H           0.17666099231616   -2.87856948704661    5.62348973691076
H          -0.48251398477632   -0.99512585666926    3.93891989006892
H          -8.54160815539635    1.59040177382493    5.40759142258448
H          -7.28956306303476    2.08247982272120    1.80357170069270
H          -5.56649734598210    2.75708522450192    0.78225916611401
H          -5.01081548181491    1.69260732939711   -3.94404952974684
H          -5.67337973119355    3.22581207594702   -4.53947714178347
H          -6.73580248189442    1.83833969270656   -4.31776097884347
H          -9.33961537896433    9.00331906105513    2.96151683764067
H         -11.57313788080907    7.98639492619190    7.44380007086430
H         -12.90124160325001    7.14672375405815    6.62982492379319
H         -12.75754967355852    8.91613256679729    6.52013494826243
H         -10.14103811692103    8.57093735051772    0.99024537282795
H          -9.59243159633506    6.60601536832316   -3.35519252582600
H         -11.19478666681904    6.92518124802579   -4.02232555815462
H         -10.84161131108200    7.29643877162623   -2.31333485643025
H          -8.25861590234724   12.62173857384059   -1.54746855477915
H          -6.91695433441113    8.84823683591316    0.81272794161397
H          -6.98497432465126    6.90129691958209    5.21330763080385
H          -4.35446539547236    3.87227411965566    2.42679238323368
H          -3.05884991454862    5.06916763660890    2.31678372094993
H          -4.22651009472999    4.93064608189789    1.00187684351786
H         -10.27889695028072   13.11910994440175    3.14257822128274
H          -9.81891253090707   17.45175922591282    5.34724730189704
H          -8.07386508371237   17.32499601876888    5.63638640125438
H          -9.21004199552232   16.74481671199572    6.85167037297593
H          -7.79817273295599   12.24100526077588    7.03849745908760
H          -6.71012360872009   11.38041995418039    9.23124235623455
H          -3.92303212780166    9.15004830858375   13.11274184901911
H          -4.75274980573451    5.43895574898864    9.84541269904270
H          -1.49453490383926    4.83072813774587   14.02216191577938
H          -2.25271013496923    7.30233303473396   14.39137203676138
