138
 SCF done       -271.033699479134          0.000524340502
C          -3.73448466306355    3.07110152844907    6.63708438234278
C          -2.45308656846898    3.52133986187796    6.82605724744040
C          -1.59918530124989    3.07294302028778    7.85789413950623
N          -0.84546137294996    2.76402423057232    8.66651815858373
C          -1.76260836063937    4.46854715678835    6.04294401904447
N          -1.10963831711687    5.21351576793227    5.45995752586372
C          -4.38593934361849    2.06724275460739    7.46744737561137
C          -5.68897107378560    1.83846585520359    6.96344612597875
C          -6.56080856638828    0.94175081943665    7.53333110201739
C          -6.12766461887402    0.23520621002934    8.65831083423318
C          -4.82256020031927    0.46844717374954    9.15651530208078
C          -3.94149803999465    1.37417462389772    8.57892982899085
S          -4.49791778011917   -0.51206045719131   10.55078049767067
C          -6.07732831936126   -1.21001105576562   10.45762967822296
C          -6.82025693415128   -0.73690017489914    9.43303526451817
C          -5.92401171989230    2.69007334200402    5.78707200068102
O          -6.94123407450106    2.70073263171541    5.12516529922855
C          -4.68150098697222    3.48586033877463    5.60545307697224
C          -4.41258291769211    4.45920172275462    4.68664318912339
C          -5.19976133781779    5.03387125662425    3.66021346375231
C          -6.48813949236488    4.81209213040908    3.24429195220037
C          -6.90426809172829    5.65720938633324    2.19787181623592
C          -8.17418516855755    5.67926582193946    1.57712099199757
C          -9.26396962311078    4.83006817591254    2.00728186740273
C         -10.18768715831383    4.19201348725051    1.22608658306941
C         -11.14587144495400    3.48844871310083    1.98341411159990
C         -10.98347725786799    3.59213751437271    3.33638453948249
S          -9.60547640020343    4.56832270022747    3.69599827396889
C         -11.80526376330834    2.99557880216715    4.41865627224133
Cl        -12.41149327413066    2.58153416328564    1.25021974963045
C          -8.33156158732087    6.58130415218425    0.53181422157049
C          -7.31036425102050    7.48209957360464    0.12525562512520
C          -6.03835654873771    7.46918386574224    0.74646039840543
C          -5.87055137596092    6.53426594346686    1.76613766012896
S          -4.43407753076711    6.30731584295299    2.71343081504867
C          -4.95311013673568    8.33135467386609    0.33224793642266
C          -3.61775821429491    8.02953525633456    0.32068299941285
C          -2.80949368909786    9.08361387716061   -0.14936759737060
C          -3.50303133057144   10.21485124509615   -0.47869461553578
S          -5.19444063629933    9.96705173434535   -0.22884759467457
C          -2.96569292550622   11.51576912285177   -0.94840745465048
Cl         -1.09720285148101    8.95767589467152   -0.30394159736306
C          -7.72602546297597    8.26408479461829   -0.96950079327056
C          -8.99296953025344    7.97747404909463   -1.41288281384771
S          -9.77905504896047    6.77708762605310   -0.42408217974073
C          -9.62115076364609    8.50586306741017   -2.57861298732444
N         -10.92076547236747    8.69716593456150   -2.66888882934116
C         -11.12706320389524    9.29764010147353   -3.86199174902561
C          -9.85669928850366    9.49960656450294   -4.57834009532499
C         -10.09144055586930   10.14908168464101   -5.88194811500684
O          -9.28027807101259   10.46395494473773   -6.72234060872794
C         -11.55788638713224   10.31368458588723   -5.89131880928309
C         -12.14610622983374    9.78222930901915   -4.64203081709632
N         -13.49634223370850    9.90753374707495   -4.65952443428768
C         -13.77436998295366   10.46125356971555   -5.81345598036409
C         -12.61215956295507   10.73386588677302   -6.63602095098308
C          -8.88246784544218    8.95255431073142   -3.79597779694966
C          -7.47727303991574    8.78869084954263   -4.01945981731681
C          -6.80894955472399    7.70691974019854   -3.56705137637577
C          -5.39413232056490    7.54542228269866   -3.48992604848810
C          -4.36666563062008    8.27868827823954   -4.00871070239107
C          -3.08865067534666    7.85686636767160   -3.56927801165807
C          -1.83709891637607    8.42233043687124   -3.89753065983233
C          -1.73762132405543    9.69975196058830   -4.56335497040422
C          -2.57379333512926   10.77395582614156   -4.41603090690969
C          -2.13239817392696   11.91254569988935   -5.11967404199603
C          -0.97020930349805   11.73296751770022   -5.81411285745931
S          -0.39602753570022   10.11485842096381   -5.59609209823113
C          -0.21048312118523   12.70800230605635   -6.63408759327122
Cl         -2.99560904651071   13.40285469967500   -5.08098068593154
C          -0.72005235309649    7.72323503134175   -3.45176416935440
C          -0.78839681575046    6.62651859408435   -2.55462918997094
C          -2.04202488547275    6.16434632642560   -2.09091170695573
C          -3.15995348891912    6.74585839239082   -2.69076320809104
S          -4.81317616157015    6.28209105679391   -2.42391800966755
C          -2.16856828932073    5.23989225022216   -0.98855095155264
C          -3.21480213964822    4.41386179040373   -0.66945130214982
C          -3.06148851146668    3.79289370937393    0.58621696643439
C          -1.91043837760425    4.12167159288024    1.24519742910591
S          -0.98567053382811    5.23060739920900    0.30044927331808
C          -1.41711450075372    3.64006361531919    2.55723152894968
Cl         -4.25590008136090    2.73305720503053    1.24136276068606
C           0.49761534733752    6.13859697663215   -2.23512545015767
C           1.52415557427512    6.84386549542752   -2.80893619421230
S           0.92123101979722    8.12711143256268   -3.83751323299269
C           2.90501260651456    6.52833751262809   -2.70797621987598
C           3.97610118189814    7.25724697746098   -3.11136392749361
C           4.09443426434288    8.63068417581063   -3.56315582857457
C           3.40496832093707    9.70144048996604   -3.05959312812357
C           3.53138282727881   11.01836136453039   -3.54049642831116
N           3.56425103805683   12.09745980141678   -3.93130129503867
C           2.54666938992755    9.59636359793288   -1.94366783828216
N           1.91215977230055    9.56104126797798   -0.98824197252337
C           5.26454181363528    8.69838197414959   -4.42641516882254
C           6.00055740574418    7.49220731199246   -4.28317495601823
C           5.27470266928212    6.57612198444864   -3.38278414772827
O           5.61635253055729    5.48337081649133   -2.99507565051571
C           7.19577105575281    7.28281535730427   -4.92851880473544
C           7.67827947481379    8.29967256294081   -5.75811816036362
C           6.92769686573657    9.49183134502293   -5.90414562787738
C           5.72417001462832    9.71116597876704   -5.24471375083149
S           7.71278779346649   10.60018820693179   -6.98361378991769
C           9.01419308220498    9.48569502273890   -7.22148745681714
C           8.87390193924732    8.33386611122907   -6.53021697443398
H          -7.54686797393699    0.79338965111986    7.12119413854701
H          -2.96015725646089    1.51244545347569    8.99988667403940
H          -6.35666867201570   -1.94394336685254   11.18838950409095
H          -7.82470972472648   -1.05520898833706    9.22028461853787
H          -3.42942227130648    4.90958140546001    4.74765367501101
H          -7.10364425497310    4.04960004903371    3.68262637815831
H         -10.16919132243130    4.18158545096493    0.15250659816362
H         -12.33506974811564    3.77181046935598    4.97108806443770
H         -11.17334319739374    2.45505240697681    5.12159246454229
H         -12.53369584511666    2.31091158586630    3.99137016810229
H          -3.21792329939873    7.07424836517922    0.59850049193920
H          -2.08090433027950   11.35111029454988   -1.56066844207341
H          -2.67352302355000   12.13196087099839   -0.09669481691472
H          -3.71089365148394   12.06304245988552   -1.52054995771586
H          -7.12379666711991    9.03070816105171   -1.41584919241476
H         -14.79430283006110   10.67796428825819   -6.08001536125041
H         -12.62884026826488   11.17568522146337   -7.61267445487582
H          -6.97248327863289    9.57609531968984   -4.56170896059527
H          -7.37149694250198    6.89412314028794   -3.12735991628676
H          -4.51482836726802    9.06169836162897   -4.72841838467597
H          -3.44375308347729   10.77806004609854   -3.78747351315013
H          -0.77847286019359   13.62981526084626   -6.73117286442219
H          -0.01104290099690   12.30481133861843   -7.62580575728472
H           0.74753940733244   12.93207985759625   -6.16409549598542
H          -4.05104798214054    4.21011917903094   -1.31043109505302
H          -1.15685844619231    4.47611744203534    3.20573250688695
H          -0.52126844269565    3.03247430878749    2.42813724375437
H          -2.18249940750397    3.03511692422796    3.03834075819097
H           0.67871723556094    5.28837336860192   -1.60374880006767
H           3.12815454270870    5.52995966355165   -2.34476358745557
H           7.74297619145253    6.36248565158317   -4.79556347169394
H           5.18084207410684   10.63139652819370   -5.38472560730457
H           9.81650760562729    9.76756375798656   -7.87529048261608
H           9.58320401052948    7.52655009736451   -6.55500527363383
