105
 SCF done       -215.856932092835          0.000573630752
C          -1.24901669323123    0.07093970707385    4.26287316999664
C          -0.98302007848485    0.55069005704630    5.51988879252024
C           0.07397565161872    0.09058266075427    6.33407920896197
N           0.90843048035444   -0.23783130147162    7.05070021055688
C          -1.68085679760087    1.58503895234794    6.17840052484187
N          -2.17849918980818    2.42962737225547    6.77751738320026
C          -0.45292694205387   -0.92533113799173    3.55966600787598
C          -0.95145867943495   -1.05359194954008    2.23969993048319
C          -0.40001323302157   -1.91000620004726    1.31716195431052
C           0.69601787886959   -2.68001436599623    1.71643422478895
C           1.18444583094231   -2.55088984825618    3.03956084574033
C           0.62740256963366   -1.68352009456473    3.97150655416033
S           2.53846199332793   -3.60059803818458    3.31448073193524
C           2.44342449956102   -4.18850456998011    1.69070684493733
C           1.44625018216521   -3.63108024116963    0.96948133808250
C          -2.10292631106958   -0.15578938289827    2.05441706270839
O          -2.75544673653935   -0.03739868661463    1.03890799502125
C          -2.30859177443756    0.51011374527530    3.36604780584918
C          -3.35525034310460    1.29790078391308    3.75555659169819
C          -4.40883901659615    1.87481071828189    3.01658725867920
C          -4.65184568309852    1.99612819862170    1.65419568407162
C          -5.81215403900555    2.71227271340378    1.39090226514045
C          -6.47633021369459    3.14330916095761    2.56184951149097
S          -5.66015987014145    2.68102923679322    3.97683826194388
C          -7.64168613895459    3.85053518897009    2.18352395798121
C          -7.71781036834610    3.87738868957047    0.77978479445732
C          -6.56804637379671    3.16738765751534    0.23532843537078
C          -6.26878988675656    2.99111083952083   -1.08259752795430
C          -5.11002727785749    2.32064868138568   -1.53301132141322
N          -4.17236803618633    1.79881928973528   -1.93479776435417
C          -7.10471215433910    3.49248981487977   -2.10392534439054
N          -7.78660168154255    3.90115687791690   -2.93011678202918
C          -8.83417697816206    4.56739330158364    0.31130178695374
C          -9.60873433420741    5.06112265931833    1.34703049550375
S          -8.94635138829226    4.66747883508830    2.92559550388822
C         -10.80570308265626    5.81397579973940    1.25011779680324
C         -11.59435794943167    6.27220168576561    2.29067664651654
C         -12.69641404906187    6.99038499401853    1.83127857395283
C         -12.74553974373443    7.08259424651146    0.42849227279462
S         -11.43863844575060    6.27861833565503   -0.32274708842128
C         -13.88846502457879    7.83737567251533    0.06467872358130
C         -14.56393925799403    8.21876912043468    1.23916166495081
C         -13.83912240822491    7.69724767858342    2.38684165855111
C         -14.16211482637846    7.84145046243662    3.70370859480581
C         -13.37387741175613    7.28463515752650    4.73323761750662
N         -12.73348904601953    6.83146003230373    5.56896086026504
C         -15.30539045517515    8.55674946393754    4.11880920471948
N         -16.23408407645038    9.14029925992958    4.45252625925217
C         -15.70411331214298    8.97617049935110    0.98744176202962
C         -15.90529654112329    9.18022035674454   -0.36778646395041
S         -14.65842057774829    8.41167379662130   -1.34502340748680
C         -16.95888815004018    9.91231630519179   -0.98587361051723
C         -17.05469349759770   10.06207376633655   -2.35179775932693
C         -18.07185341437163   10.75315634174971   -2.99962564475326
C         -19.21814694532678   11.28884132070985   -2.26150327930020
C         -19.31346097146871   11.28171797621373   -0.91202268339826
S         -18.12102948425272   10.61978293154493    0.12244264338891
C         -20.12822033195586   11.75512704318528   -3.25136079641753
C         -19.59808407332361   11.52639620235625   -4.52122131120919
C         -20.46060496668264   11.96953452501154   -5.54600419054166
C         -21.60117378437103   12.50791549955989   -5.03753030115804
S         -21.67274402758090   12.50421908216308   -3.30953268808152
C         -18.29138105127778   10.93352259435023   -4.38557861205312
C         -17.44987219783253   10.60521536092697   -5.46007559012157
C         -16.08321639869289   10.49206692120463   -5.42688708398428
C         -15.29919767474738   10.14164971964759   -6.53691608824537
C         -15.67269681099877    9.42598908973780   -7.65207714409177
C         -14.91695181757637    9.58943950577426   -8.91223861554498
O         -13.86457173186448   10.16453036591896   -9.07144386923006
C         -15.75454448281715    8.93889806694896   -9.95319096184116
C         -16.86081752413299    8.32452017522185   -9.33903604828871
C         -17.79406339481707    7.65292535708971  -10.11089797419807
C         -17.62376613715980    7.60104625885866  -11.49415932559995
C         -16.51037197514727    8.21326142683529  -12.09394708836068
C         -15.56565916335936    8.89157140683741  -11.31579725809355
C         -16.30767250194667    8.20188785497168  -13.49812273873745
N         -16.04406857352411    8.30228114956010  -14.60845117797195
C         -18.57258960467534    6.86272176159234  -12.39176937875777
O         -18.24745140854669    6.48149859122739  -13.48037864736008
O         -19.80940907637891    6.64819661454948  -11.92677788311905
C         -16.76293321122769    8.51955063285373   -7.88945472012733
C         -17.43630336079030    7.76954936717170   -6.95043406921604
C         -17.11270167839211    7.76699873511575   -5.58173950696060
N         -16.84744246517479    7.68564933094666   -4.46667280109585
C         -18.48355206669617    6.88521572785261   -7.26228269909270
N         -19.37298574049172    6.19187673415004   -7.48321025527755
H          -0.80321332781407   -1.97923460579819    0.31879435613811
H           1.03447099814216   -1.62574774129209    4.96697070970660
H           3.15215958761220   -4.92788924008805    1.37178216774610
H           1.23611905177348   -3.87389652848238   -0.05633695945971
H          -3.41086700528412    1.52759714255936    4.81347339765943
H          -4.00365040401574    1.56536791417622    0.91235924478000
H          -9.08686889772050    4.71200538254238   -0.72375490556113
H         -11.36300337347843    6.08333763993161    3.32363437421651
H         -16.36135718611272    9.36700316641505    1.74325458736605
H         -16.31471269606937    9.55509259563174   -2.95490638549534
H         -20.15708881848198   11.70072652578640   -0.38664443490143
H         -20.25810848734108   11.89813353105394   -6.59919884500659
H         -22.42933394886657   12.92025065895930   -5.58001688256880
H         -17.93670856096231   10.52326892909996   -6.42595891091361
H         -15.55505779051693   10.81489924339144   -4.54120033731351
H         -14.28751331462539   10.53304913971591   -6.57086404798913
H         -18.62798810851075    7.15575993006402   -9.63758692335277
H         -14.70837817542776    9.36196491497525  -11.77275494800198
H         -19.96470252520411    6.99042173447040  -11.03619714952028
