118
 SCF done       -230.541597261228          0.000369773974
C          -5.15051364113022   -3.25150074713187   -0.99230103973170
C          -5.76172923825052   -4.16789821456738   -1.81507012358980
C          -5.72699383567968   -5.56276284146364   -1.61159827340413
N          -5.74224522930749   -6.70722546308540   -1.51534732825045
C          -6.52412936073650   -3.88335129804901   -2.96502426690603
N          -7.16356706225490   -3.74556870806226   -3.91132417055986
C          -4.40258026232978   -3.59193791872610    0.21288033050586
C          -3.99352993099893   -2.39167857596315    0.84185679538346
C          -3.26475804842387   -2.37478428509999    2.00576808791167
C          -2.91676683583263   -3.60305372019040    2.57658833129528
C          -3.32610905880361   -4.79774588460379    1.93945368434176
C          -4.06709196941341   -4.81433136953862    0.76344647662527
S          -2.78032103306506   -6.19502243080427    2.81384580018858
C          -2.02564773570988   -5.18754359579154    4.00026606530231
C          -2.17090385005074   -3.86620385370199    3.76013209037081
C          -4.46045133146924   -1.23663645040810    0.05138087696789
O          -4.28710464960066   -0.06990582004567    0.34509289466262
C          -5.14667126512687   -1.80627374529554   -1.12695175599799
C          -5.65136231514423   -1.14932593496664   -2.22240505016996
C          -5.73344904724757    0.21048853536807   -2.55614427663200
N          -6.23897835686896    0.54381732356616   -3.80940852408998
C          -6.21227490827549    1.88741958581254   -3.94468362077727
C          -6.47609222420602    2.94068975188218   -4.81448863669222
C          -6.11659711030140    4.10900890057146   -4.13108356526116
N          -5.65368029696143    3.78583677865112   -2.87546765782159
C          -5.68828605170248    2.43260691514099   -2.73778950499753
C          -5.39120127953817    1.39400889606051   -1.87352973983909
C          -6.16693348021038    5.43453002129212   -4.64090991760400
C          -5.86926086822899    6.55710591946966   -3.94601083542347
C          -5.84085709118896    7.87000021906424   -4.49777807086176
C          -5.94609128554366    8.27408909934267   -5.80087645443612
C          -5.79275111046929    9.66703355682684   -5.98369520756849
C          -5.81349628250311   10.39126411104474   -7.19486095280727
C          -6.13498276778685    9.77334300111762   -8.46496249823064
C          -5.59362842881712   10.03018300057827   -9.69194860629972
C          -6.20229277427246    9.28702643288047  -10.72683199307636
C          -7.21481371938229    8.46983253356295  -10.31623640407500
S          -7.42297843568865    8.60359954398236   -8.60294176499731
C          -8.07007785405455    7.56654733451481  -11.12627099114026
Cl         -5.69593693907928    9.41567363885786  -12.36725020788499
C          -5.51712944597076   11.74767477373293   -7.10918740309316
C          -5.28040092141399   12.41647490508412   -5.88246381576141
C          -5.33814794378622   11.70734395562105   -4.66454536963193
C          -5.54749048979488   10.33744010691605   -4.75729377335814
S          -5.56296007886188    9.22569738203966   -3.42106691049378
C          -5.19471459223757   12.39675643980068   -3.39927835663878
C          -5.72804080786522   13.60342508356266   -3.04471680584873
C          -5.38921287120792   13.98309378076865   -1.72829834720012
C          -4.59858257524692   13.08758455355384   -1.06868293922807
S          -4.26476630655296   11.72757487995834   -2.08695967521731
C          -4.05515870443747   13.16414499961847    0.31052185590688
Cl         -5.93849397928107   15.45939506650256   -1.02960094613752
C          -4.95911949615139   13.77959780172862   -6.07553788739767
C          -4.96758324866382   14.16500804726246   -7.38647633888817
S          -5.39632663808921   12.84626595125529   -8.45764144683919
C          -4.62717003689579   15.43743343818900   -7.91914641414822
C          -4.52095792351187   15.78970495186899   -9.25092458847563
C          -4.10748020030363   17.11255545607382   -9.40842358087595
C          -3.90698751515026   17.77309927002818   -8.18432051822413
S          -4.22547107965615   16.76476140570771   -6.84234004396346
C          -3.46123856217920   19.09250144483175   -8.44585796199590
C          -3.37882381393612   19.26296998134150   -9.84255810840229
C          -3.77490283943170   18.02526773106645  -10.49098281261989
C          -3.78083904574101   17.76990602679903  -11.83070628805027
C          -4.16781643509759   16.52037188810294  -12.35870859352652
N          -4.48839244205363   15.50674995997082  -12.78763970391961
C          -3.39369984376851   18.75160168153865  -12.76725483868581
N          -3.07999295910258   19.56045542097054  -13.51710037425057
C          -2.89681597354542   20.51299900359198  -10.20740044284330
C          -2.60469673206925   21.30542259323393   -9.10718412865833
S          -2.97673592732508   20.48299565781148   -7.59482763654777
C          -2.10697454256997   22.62636447069104   -9.07307556701723
C          -1.45287311574855   23.31221705914331  -10.05043002586425
C          -0.81599577989538   22.91465238339999  -11.28907154330220
C          -0.20695852927045   21.71489854766625  -11.55432081886659
C           0.52580321337962   21.44799526400010  -12.72992720582338
N           1.13981651970281   21.17793905484135  -13.66094952599914
C          -0.14623006973908   20.64037553666949  -10.64672818709686
N          -0.04164296502920   19.74689115484264   -9.93266318073346
C          -0.67956751603625   24.11452484316683  -12.10722741689015
C          -0.98606019704531   25.24792147723694  -11.31001205916941
C          -1.39775646411923   24.80052579858626   -9.96848877304153
O          -1.68159268251956   25.47806232366367   -9.00701112194786
C          -0.90367766799597   26.53115085757807  -11.79493048794826
C          -0.51509566700490   26.70233875205909  -13.12721614998168
C          -0.23207942175840   25.56278502198350  -13.91900826237300
C          -0.30599842528547   24.26439407397584  -13.42800864311425
S           0.21112094783490   26.01371806450948  -15.53418314075770
C           0.02508245478562   27.68836279623723  -15.14388609315267
C          -0.35422766282399   27.90831215460177  -13.86609736002826
H          -2.97035512725566   -1.44124144701111    2.45986814543142
H          -4.35045525241860   -5.75296497968536    0.31804197765524
H          -1.51124499873547   -5.65584029079019    4.81684595216491
H          -1.76920162786903   -3.09226757082754    4.38895166345451
H          -6.04722604018543   -1.79026823062832   -3.00131646945593
H          -6.56466318612579   -0.12734998012603   -4.48477537351243
H          -6.87312722953267    2.90034997113756   -5.80863919945978
H          -5.30950220180973    4.44318219604427   -2.19836874080152
H          -4.97954327637753    1.43327145947390   -0.88680068081443
H          -6.46164367900705    5.51449978371785   -5.67683285568380
H          -5.62282430496940    6.49922082436051   -2.89436612162037
H          -6.09089986323236    7.58690211873618   -6.61248214969430
H          -4.76608949183627   10.69294220653731   -9.86237129939712
H          -7.74408807518978    7.58968214828142  -12.16297820141128
H          -9.11304715986468    7.87889937616269  -11.07727202875407
H          -8.00917154036733    6.54358306090041  -10.75680557189840
H          -6.37670374881380   14.18349856283184   -3.67467099684026
H          -4.36524026798898   14.09649364775933    0.77564753187017
H          -2.96675797470409   13.11911718748278    0.29758776270050
H          -4.41766627726817   12.33082524158164    0.91160516992333
H          -4.68684865301840   14.44698085382147   -5.27793020349383
H          -4.72742999479353   15.10153026405416  -10.05085930473166
H          -2.79480055041130   20.85823133896277  -11.22012167108687
H          -2.32111661651276   23.20011499606895   -8.17642849529142
H          -1.13225075279210   27.37688949224489  -11.16517061234951
H          -0.09158190002782   23.42487873622535  -14.06858093314423
H           0.21398143417694   28.41658307855272  -15.90853108729928
H          -0.51875767574781   28.88400843666107  -13.44598644234032
