115
 SCF done       -203.223398857494          0.000420513470
C          -1.72004986958172    4.08412213930167    1.03602960774489
C          -1.39306633850993    4.43786978095522    2.32138665174465
C          -0.10001047666017    4.81905847262327    2.73162608306420
N           0.92934171591979    5.14674441389192    3.12116590868254
C          -2.29265843130300    4.43072656779315    3.40696192137983
N          -2.96260055771176    4.42325171022014    4.34006890169743
C          -0.79275196179556    3.97529953094160   -0.08308467017593
C          -1.49379330800637    3.45763542298222   -1.20079066330794
C          -0.89052461016239    3.24121491068120   -2.41555964067901
C           0.46956279817055    3.54579255886963   -2.53303560144669
C           1.16018898738925    4.06402690036711   -1.41207980005772
C           0.54962717452263    4.28531346593258   -0.18274267470729
S           2.82555083506667    4.37603897939834   -1.78897550823515
C           2.58817593084432    3.81983555354595   -3.40951918213641
C           1.32402233781908    3.41760219657559   -3.66431855143120
C          -2.90636700260978    3.23274978712242   -0.83790262171964
O          -3.79153272842462    2.86492810927629   -1.58431368037186
C          -3.02437933271175    3.66412573571772    0.57330449540897
C          -4.20971127887213    3.87250611976667    1.23201674095445
C          -5.46417298865104    3.34396512278801    0.88990200814786
S          -6.90079804130342    4.23660535822874    1.33046893428624
C          -7.98106942808858    3.08918039788289    0.59671882128452
C          -7.24102523835971    2.03332684532203    0.09180555930827
C          -5.83239456868063    2.15487536453431    0.25557060206488
C          -5.14118075065435    1.00707033353301   -0.19264473619080
C          -5.98463612132991    0.08076361424699   -0.73045318324046
C          -5.66559070660517   -1.22218357801129   -1.31714120099960
O          -6.48794031026558   -1.97030579466464   -1.78665736415521
O          -4.35195155825323   -1.48504964072918   -1.27003547184194
C          -3.95773951631010   -2.72951923528271   -1.82931882877704
S          -7.66406652653348    0.54385146166252   -0.69535969303949
C          -9.39952542112452    3.32505121969484    0.56631297099049
C         -10.27448675148037    2.36221007275643    0.03981966256901
C         -11.62067487148015    2.62737213322257   -0.00278287480656
C         -12.12701573104143    3.84585191012361    0.47512861409135
C         -11.27254125938759    4.80009733025253    1.01172215210475
C          -9.92156012942344    4.53256585159249    1.05410284359876
C         -13.56025185626875    3.84787142696748    0.28202336230836
C         -13.94266184256218    2.62153590990372   -0.29374786616176
C         -12.73442616424033    1.73903012205640   -0.52409418061507
C         -12.46851965720541    1.51492392449960   -2.03099303939272
C         -13.42438559398633    0.58931232520327   -2.77117352300681
C         -12.72630370589429    0.42643501628121    0.29691809688410
C         -14.06803381267524   -0.26766362739479    0.49884077510140
C         -15.26602742440014    2.40256583186700   -0.60504970804027
C         -16.20979625603319    3.40484028788082   -0.36018689442782
C         -15.81913884058895    4.60728489946491    0.22874126674566
C         -14.49572049263960    4.83518819685581    0.55318942005658
C         -17.61049825608482    3.16806766704003   -0.73353336787710
C         -17.94667576489919    2.60705075214007   -1.97646457724129
O         -17.00248676488304    2.30552640419853   -2.93809829457217
C         -16.37566359570741    3.42110286012187   -3.53726198609363
C         -19.26663986112361    2.30949375580063   -2.25288621823270
C         -20.28628973123504    2.56793675389150   -1.33739853709260
C         -19.95906860323219    3.20457798426868   -0.12094090898521
C         -18.62833381525468    3.47713799479162    0.16222162601578
O         -20.99296689160939    3.45673936461868    0.71303519336008
C         -20.72649138155952    3.99869612725394    1.98575035375421
C         -21.65722888577162    2.24159375157805   -1.63175647630675
C         -22.11013653636714    1.18077862134747   -2.33791474941036
C         -21.44185055665247   -0.02570364911428   -2.79722783852855
C         -20.39113546702576   -0.65431264438707   -2.18483661656334
C         -19.83860317020552   -1.87222953108267   -2.63176484186435
N         -19.34533023706743   -2.85420918077403   -2.96362969813884
C         -19.79472330928114   -0.22081445800149   -0.98183367004813
N         -19.30998514215124    0.02510632355077    0.02925830774834
C         -22.25351359972987   -0.58425111267337   -3.87113748970474
C         -23.49350874741295    0.10537149870732   -3.91166894224385
C         -23.49040504181344    1.17913765666293   -2.90005004400154
O         -24.38995647119018    1.93639982842497   -2.61691773366846
C         -24.48999481869908   -0.22659517599985   -4.79811609026366
C         -24.24976635930887   -1.27606165044410   -5.69004843489526
C         -23.00330126687750   -1.94664239683433   -5.65105875928059
C         -21.99719058076225   -1.61873527718632   -4.75047521558323
S         -22.92500935940807   -3.19805816117986   -6.85096703215284
C         -24.52950061941765   -2.82539666887466   -7.37936540316763
C         -25.10297738630222   -1.81096176861955   -6.69647257671769
H          -1.45140990470269    2.84812930555097   -3.24937160746099
H           1.11571929850372    4.68899821477404    0.64014775790564
H           3.42406710523939    3.82952913343525   -4.08172454501964
H           0.99165980144151    3.04252487166103   -4.61541650740499
H          -4.21281652274240    4.55941434290198    2.07034260290688
H          -4.08263554486048    0.85194607063251   -0.11519031879452
H          -2.87481374935696   -2.76897589347447   -1.74726777424479
H          -4.26802593465818   -2.79075697564965   -2.87443102060430
H          -4.41547157283001   -3.55431713170617   -1.27901252190009
H          -9.88856482996643    1.42240860770836   -0.32030868286500
H         -11.65547742889783    5.73659613472397    1.38755460928158
H          -9.24236051190731    5.26608972247087    1.46405569798867
H         -11.45667872177786    1.11400187052306   -2.12769602756088
H         -12.47844422795479    2.49611993217890   -2.51509822158119
H         -13.40495804935669   -0.41176671873584   -2.35067838317298
H         -13.11154891723529    0.51890160167188   -3.81146753779738
H         -14.44274255207810    0.96455492523382   -2.75386516030614
H         -12.32348164260542    0.65839985485774    1.28688873701554
H         -12.02885071388182   -0.26319118913487   -0.18252795816014
H         -14.75534456473136    0.36759202781410    1.05158978856090
H         -13.91101434465833   -1.17671835616503    1.07631362694397
H         -14.53194117182932   -0.54450770793479   -0.44211774357436
H         -15.60564380704994    1.47446407656426   -1.03132348941348
H         -16.55700733751772    5.37710968189249    0.40271945957024
H         -14.19371681221065    5.77145718811091    0.99814713289043
H         -15.65604538925385    3.01578604009793   -4.24611308308563
H         -15.85328271947701    4.04075608279001   -2.80211277127665
H         -17.10637912360917    4.03828166068789   -4.07185721171776
H         -19.50583680791937    1.88193202178166   -3.21538963820611
H         -18.34939033192795    3.90465074480784    1.11221320132976
H         -21.69586363189428    4.08773641778878    2.47318888308186
H         -20.26603511348684    4.98907246142873    1.91310859441913
H         -20.08442847489233    3.33611545838422    2.57292901122412
H         -22.40656982064128    2.94754354061653   -1.29062947306833
H         -25.42727615917874    0.30789010468025   -4.80211161392789
H         -21.06072740621085   -2.15181870380908   -4.75982254000088
H         -24.94991001717191   -3.39875623930680   -8.18259088694338
H         -26.09457844397911   -1.44188428545291   -6.88637860504799
