136
 SCF done       -269.413680419387          0.000974384633
C          -3.14936809243509   -0.51506654444864    3.35256932671964
C          -2.13787918487419   -0.95589434387077    2.53997211869843
C          -1.39884507986256   -2.13610535449455    2.77146601366128
N          -0.76586698746808   -3.08589594942114    2.89289955485355
C          -1.64238705865524   -0.30377810990779    1.39007001627374
N          -1.15328662208244    0.16143331203554    0.46069482753115
C          -3.56769767321022   -1.16170079098599    4.58900937580238
C          -4.50700568896729   -0.32468712229228    5.23851013104350
C          -5.08090535592387   -0.64818388976107    6.44460902578082
C          -4.71893638080755   -1.86204299037436    7.03473781703138
C          -3.78695627592275   -2.69833185937660    6.37372861398612
C          -3.20109133126560   -2.36735506974881    5.15779068055245
S          -3.49377871551190   -4.14978842817831    7.27867160035494
C          -4.59548828806924   -3.63476132867176    8.50847737555224
C          -5.16198673123912   -2.43370602507728    8.26057602577856
C          -4.74355968308601    0.88112554741730    4.42741941100026
O          -5.45032678682741    1.81399964625858    4.75043263313832
C          -3.94670838644498    0.69571519346871    3.18816388710915
C          -3.97776478654773    1.41551478672790    2.02809679600783
C          -4.69884150549851    2.57566788451931    1.66194681462546
C          -5.53851121623653    3.40490687229082    2.36275877482820
C          -6.06817982991567    4.46118834452400    1.59769865994868
C          -6.93222730056011    5.49053937389371    2.03891273590879
C          -7.48948376892531    5.51789627274595    3.37366208562487
C          -7.71852337187483    6.61059228472727    4.16418129080583
C          -8.32773719206723    6.27475587900890    5.39000136762705
C          -8.58467204574188    4.94184816211208    5.54650983067075
S          -8.05650093261242    4.06729431634427    4.15467046977744
C          -9.21636656618089    4.24610638390978    6.69553438479209
Cl         -8.71239297238168    7.45713575914047    6.58085649483284
C          -7.23978194615828    6.47479239774339    1.10934564469448
C          -6.75646708923277    6.46922441758431   -0.22515400958380
C          -5.90271904445224    5.43793088718955   -0.67131817714039
C          -5.58587810853511    4.45301645261586    0.26031803664394
S          -4.52125176876688    3.10949172381391   -0.00924187616084
C          -5.36373039537449    5.40359869400150   -2.01490227613765
C          -5.12692896001537    4.30984239612310   -2.79821071731516
C          -4.55176171826975    4.63999662705512   -4.04447952249374
C          -4.32862011715764    5.97333925697621   -4.22938418598401
S          -4.84434307635557    6.85553233883646   -2.83361302999593
C          -3.74640950308221    6.67068918881495   -5.40340608469397
Cl         -4.17427066703534    3.44682389033255   -5.22622907810606
C          -7.27769637648733    7.54407778975198   -0.97661407898558
C          -8.10682611160542    8.36837216955384   -0.26435822724692
S          -8.30342647197916    7.82712764789560    1.38947788541660
C          -8.75953033280463    9.54051675394439   -0.72305618858721
S         -10.09272979260710   10.22274313546025    0.15964554794740
C         -10.31518555736217   11.52001633762663   -0.98622596803198
C          -9.37509324917840   11.41137504715217   -1.98991659610944
C          -8.48882596485052   10.30230368822354   -1.85808012054853
C          -7.53024021616582   10.27659064697665   -2.89945180734178
C          -7.70197204014758   11.30326514092621   -3.77915309752854
C          -6.91400997239925   11.60995451423405   -4.97452660873853
O          -7.11643279176269   12.55232733651583   -5.69882999890995
O          -5.93126651991299   10.71300125835785   -5.16232602293191
C          -5.10232424700290   10.92787551591275   -6.29608419304676
S          -9.03527034137595   12.36996099034226   -3.39230781029000
C         -11.34071598025705   12.48316053204833   -0.81163063950217
C         -12.29183416703297   12.50830560168470    0.17241685768599
C         -13.17718845013382   13.60346767383506    0.07319993696664
C         -14.28896705977652   13.90006152580919    0.88965162026954
C         -14.62981768240968   13.08063619053993    2.03459255549084
C         -13.79527619685443   12.52629903486022    2.96351243323706
C         -14.48819567158112   11.76426555752878    3.92724954131429
C         -15.84132393765956   11.72128963083265    3.74796925357711
S         -16.28819627225244   12.65130969725263    2.36194784316851
C         -16.85570294964601   11.00795726345126    4.56534450278873
Cl        -13.69432870120868   10.95256986282075    5.22146102943677
C         -15.05058413407566   14.99922769059280    0.51751062190730
C         -14.76441972195174   15.81071728530032   -0.60886297749289
C         -13.65728719111758   15.50832598617096   -1.42946120249131
C         -12.88119651289125   14.42095179575272   -1.04761305847404
S         -11.49536294587584   13.82525185250776   -1.92211940607300
C         -13.37240216280762   16.27469431307544   -2.62410087123844
C         -14.25608925139930   16.73132346217315   -3.56014051868774
C         -13.62055572455068   17.43034754267119   -4.60897846807198
C         -12.26369595857584   17.52177189941023   -4.48677292055614
S         -11.74068550804087   16.71725527089663   -3.04669756175261
C         -11.28836904890941   18.17843465772800   -5.39234772020131
Cl        -14.49946358956228   18.10660679411911   -5.92669291773403
C         -15.67365120194813   16.88604248218190   -0.72563521047909
C         -16.66130883272909   16.88116847452507    0.22184297850116
S         -16.44512656583445   15.57732808338019    1.37653817609337
C         -17.72551557964652   17.81770457737979    0.34509934678234
C         -18.91899154831771   17.63885722901389    0.96325811105519
C         -19.56559069477627   16.44202772699066    1.46939797616504
C         -19.48453444810504   15.19267981086143    0.91373449796967
C         -20.15110822132945   14.06109005657381    1.42211839169526
N         -20.65142440737644   13.10769678590617    1.81989302836145
C         -18.78204208265124   14.93311149508617   -0.28281240261933
N         -18.27807504618662   14.71428789256578   -1.29065075887830
C         -20.52113973713446   16.86727246101015    2.48200031058397
C         -20.65531770098486   18.27940105682915    2.41351822674897
C         -19.72960780478157   18.81284945861108    1.39618466364124
O         -19.60293716317141   19.95727995981700    1.02765715823448
C         -21.53035273336006   18.97185551568888    3.21595616428748
C         -22.29532989902577   18.24278928498184    4.13159380920508
C         -22.14180314638417   16.83663354833324    4.20036821121288
C         -21.26571850984786   16.13222477720176    3.38325188633944
S         -23.17796619867534   16.14995133637289    5.41088915758711
C         -23.80053420604500   17.71592469546781    5.80192214601109
C         -23.26043218261983   18.71223925635144    5.06717115798640
H          -5.78982386211138    0.01596058393827    6.91424819120963
H          -2.49899234103422   -3.04058445254413    4.69557185781202
H          -4.75372471524491   -4.27453377284304    9.35485590375828
H          -5.87026482302013   -1.95564493442175    8.91280996585560
H          -3.37083503879167    1.03198653394059    1.21599581305142
H          -5.74490044234974    3.25311912262747    3.40507061047834
H          -7.42867083701946    7.61334965010276    3.91119513391146
H          -9.27021055516245    4.91843099312883    7.54842902586837
H          -8.63987195176257    3.36387140967967    6.96761816938347
H         -10.22668332275938    3.92371613063546    6.44144931048223
H          -5.38444928276986    3.30376675727463   -2.52496611760289
H          -3.65544726116863    5.97438786296681   -6.23339122029737
H          -2.75698412468406    7.06251944756585   -5.16589151378135
H          -4.37805692286632    7.50603304409183   -5.70219770729887
H          -7.09256779506422    7.67982130688696   -2.02327011046389
H          -6.73553023024617    9.56161406272087   -2.99871566125482
H          -4.19463476074066   10.35366772909619   -6.12653502925976
H          -4.87344205652657   11.98993392811048   -6.40201318031138
H          -5.60743819031961   10.58370016889178   -7.20129211283473
H         -12.36535234990017   11.74136236693437    0.92140839496131
H         -12.73351599922856   12.68706869850051    2.99295750760816
H         -16.67830509672260    9.93270963295815    4.53452562817897
H         -17.85495016721534   11.21124869747647    4.19036865033129
H         -16.79290462254660   11.32577821638461    5.60606733251317
H         -15.31227115183688   16.53541226718196   -3.53582189344859
H         -11.81407091794311   18.65056888797341   -6.21842859622129
H         -10.58595389837704   17.44684097790225   -5.79068030294513
H         -10.71565623378554   18.93454917805541   -4.85664700201296
H         -15.61846628798901   17.63159112735605   -1.49744039534201
H         -17.53439386353662   18.81266661796715   -0.04427600880625
H         -21.62309218419411   20.04400044468004    3.13803188142475
H         -21.17463238947730   15.06184994699385    3.46975104994720
H         -24.54370788857666   17.79372663281580    6.57153015041432
H         -23.52470351401127   19.74892519195243    5.17186173538652
