139
 SCF done       -254.386707762728          0.000326686471
C          -2.74358533001565    0.36780430312300   -5.65467686416089
C          -2.46580310475028   -0.84653333542517   -5.08583609344702
C          -2.06978401598115   -1.98789182280727   -5.81385867613494
N          -1.73982044335193   -2.94604382987351   -6.35311624486086
C          -2.57685674019829   -1.13483125925528   -3.70878434978361
N          -2.66452529449412   -1.45108000776088   -2.60839961531049
C          -2.73662901219456    0.66726146534548   -7.07812828933730
C          -3.25173955091458    1.97373571389767   -7.26835368248925
C          -3.37029070425283    2.54732354812977   -8.51162080991184
C          -2.96154768899956    1.79786899809961   -9.61846848308390
C          -2.44466581877181    0.49488573424108   -9.41802408685787
C          -2.32496807144707   -0.08623405433453   -8.16171149131370
S          -1.99470595190877   -0.24113974521436  -10.92409243179032
C          -2.49400361157595    1.17003992921616  -11.79062777680177
C          -2.97570054558582    2.15145358905744  -10.99720317580309
C          -3.60345574047303    2.56815902833313   -5.96505098640351
O          -4.06902304760046    3.67239220593971   -5.78708389363994
C          -3.18773229478788    1.56127858910723   -4.94907885127969
C          -3.00837908921388    1.79989931675864   -3.62430724802785
C          -3.47095883984961    2.93870128097207   -2.87610989349184
C          -4.71932463659523    3.53107654515885   -3.11870622991150
C          -5.09359230557430    4.62580383035345   -2.38032700288695
C          -4.23688421825757    5.15931911569634   -1.40105195138838
C          -3.01543573674659    4.55638185857915   -1.12779570019941
C          -2.65379637024420    3.44010514342815   -1.85050433025300
C          -4.87545710277936    6.31511612510377   -0.81229271877988
C          -6.13414654821424    6.48692682446203   -1.41490145430128
C          -6.37536910396931    5.42029449376147   -2.45689834647280
C          -6.57555765312499    6.03306214897572   -3.85568833521615
C          -5.37078365834658    6.83703521569972   -4.32840322205164
C          -7.59432828343210    4.55016206276967   -2.09565483340041
C          -7.48098032097661    3.91134126193965   -0.71660117171417
C          -6.95794918288340    7.51347915883931   -1.02309548779352
C          -6.53398104039866    8.40799761235113   -0.02761471517178
C          -5.27268368257341    8.22548006625144    0.55650578371447
C          -4.44574897498008    7.18906556768777    0.17674761440356
C          -7.42561845654084    9.47004019741640    0.37546392331271
C          -7.10465408797701   10.53814648536961    1.12872836723669
C          -8.02802676567067   11.54485209252404    1.53994177108472
C          -7.73733586540932   12.66291982020819    2.26891520358084
C          -8.86373356520749   13.46415267730730    2.57106598334507
C          -8.89683921826430   14.67350092967010    3.29332970266960
C          -7.67457821010652   15.31504639345455    3.73404334967405
C          -6.51202145423156   15.46749462937265    3.03437473016814
C          -5.51960395159809   16.14940160777498    3.77144429599256
C          -5.90210986044489   16.51698462807755    5.02848528212240
S          -7.53507422782931   16.02168506627142    5.32064889198660
C          -5.12413545540856   17.23708584890501    6.06737791793389
Cl         -3.95921456453959   16.48157625061195    3.11931656306572
C         -10.15266593522072   15.21229322995310    3.54139382535598
C         -11.35589347949949   14.64315340686325    3.05327755950730
C         -11.31765310441804   13.46708044084848    2.27414324934140
C         -10.06407655309764   12.89721856497333    2.07468328507726
S          -9.74193438940027   11.43319588661163    1.18650940305432
C         -12.51012932211488   12.87813559085926    1.70028252447107
C         -12.81223618085812   11.55368537458313    1.56182135617027
C         -14.04226568479518   11.33856723824008    0.90353610708847
C         -14.68756016849336   12.47806540586580    0.52094711099866
S         -13.76340881514868   13.86404934065245    0.99100563282787
C         -15.98461133933181   12.62375460367005   -0.18623251631553
Cl        -14.66280062345999    9.75835746591628    0.61469371497420
C         -12.48935131332346   15.37555131360010    3.47624063293455
C         -12.18310171747399   16.47331840283806    4.23065809068275
S         -10.45669464751258   16.66300460957363    4.45510076047097
C         -13.07789714826482   17.39513683859318    4.83692588225574
C         -12.74782663101359   18.47115119573642    5.63897562926175
C         -13.87849490920796   19.14966540841654    6.09215954337328
C         -15.07901416507975   18.58528067118812    5.62786895598807
S         -14.81189631343445   17.22147976898146    4.63207416698720
C         -16.16445280806734   19.32487661776370    6.15985695929732
C         -15.64396607092106   20.36121070963685    6.96169666008158
C         -14.19407046954513   20.28217438539156    6.94821844046935
C         -13.32450875925965   21.08368056711332    7.62768955723622
C         -11.92599138895694   20.91499506165119    7.55337390975661
N         -10.78871950826479   20.78512658524231    7.48910933837656
C         -13.78300656086346   22.13648451755728    8.44754399887894
N         -14.16902574752058   22.99213076659045    9.10626440919374
C         -16.63168008362742   21.12223482379982    7.57204284937263
C         -17.90784066498836   20.68226326499452    7.25247217607298
S         -17.86506340739907   19.31663533127368    6.13988472416127
C         -19.15438173801731   21.20128522249819    7.66344641847659
C         -19.43230936945292   22.00717556753572    8.72558117820027
C         -18.68856655907049   22.38660532173150    9.90873251075696
C         -17.75388498836694   21.63261168341463   10.57123006744022
C         -17.17652053364231   22.00194801094902   11.80413608363773
N         -16.68302451307219   22.24789434091783   12.81052467376935
C         -17.33569916209947   20.35293461422070   10.15968717906123
N         -16.98242322386828   19.29606392065101    9.88173057223206
C         -19.31447259440899   23.59111026435155   10.44313185115113
C         -20.54509275239140   23.80313604027455    9.76899102319411
C         -20.71073917541694   22.77502285735145    8.72716600389146
O         -21.65327162343756   22.60300102384351    7.98794479191035
C         -21.38728242807679   24.84156140460380   10.08670839905386
C         -20.99144679228571   25.71611661554508   11.10351603342417
C         -19.75096521823136   25.50731190470610   11.75379239967674
C         -18.90197814169390   24.45200679630074   11.44063631461708
S         -19.46246974210105   26.71847227291164   12.96154590438605
C         -20.97552324671393   27.47428672862017   12.60009000166433
C         -21.66922714575928   26.85680805059646   11.61905720735321
H          -3.76642065033366    3.54470454240947   -8.62430237756010
H          -1.91819855681710   -1.07840340053561   -8.05813245770723
H          -2.39316929638752    1.17723153787875  -12.85855840739257
H          -3.33124281509150    3.09899755437152  -11.35965062167104
H          -2.40471919152284    1.09671628442018   -3.06127703265175
H          -5.38137979975947    3.10622655260936   -3.85523308635211
H          -2.36472671503293    4.94836872325743   -0.36070783621153
H          -1.70744019854106    2.95617005886226   -1.65572454040147
H          -7.45932916567789    6.67455688684040   -3.82947626956504
H          -6.76358710031476    5.22729111902686   -4.56715202495530
H          -5.11056442584743    7.60848486678135   -3.60621152531450
H          -5.59462240418809    7.31582437910600   -5.27873684436725
H          -4.51326618788684    6.18440002940145   -4.47049286502174
H          -7.69856513145443    3.76766411612207   -2.84990183037772
H          -8.49061032991957    5.17282210098580   -2.13430916681707
H          -6.60565395790225    3.26784836045292   -0.66084499745221
H          -8.36299893823035    3.30952003475713   -0.51023449646565
H          -7.39633137262770    4.67307952238890    0.05545772751634
H          -7.93008298102024    7.64824471728174   -1.47568390856966
H          -4.94729330589603    8.89690619471306    1.33583622644659
H          -3.48162683224469    7.05940027628391    0.64535041429215
H          -8.44631901371378    9.38658794446373    0.02019104550074
H          -6.09070133040653   10.69279605786873    1.47117981008533
H          -6.74348791678510   12.89205176185421    2.60734220938665
H          -6.37521938383313   15.14951054722090    2.01729941899194
H          -4.12571264819116   17.45306597989629    5.69535829571560
H          -5.04311372155312   16.63568613904451    6.97220280022431
H          -5.61476653095305   18.17334963502341    6.33131816845108
H         -12.20726998231266   10.75278439060202    1.94338712509133
H         -16.40496692345112   11.64101163154242   -0.38439717332460
H         -15.85031663678298   13.14872986315089   -1.13155909508267
H         -16.68909724743475   13.19548492238836    0.41713546217042
H         -13.50356366304527   15.09757797286883    3.25434682978873
H         -11.73053174391150   18.72696511919795    5.87519163635128
H         -16.44731646819298   21.98281364103904    8.18894350303382
H         -20.00170032249825   20.98728156373421    7.01897155778791
H         -22.32290783946699   24.97496364394494    9.56622243694900
H         -17.96196699644615   24.33597671082611   11.95442590344822
H         -21.25612863555847   28.34935885596465   13.15346025767841
H         -22.62840738095168   27.18482582945815   11.26141823414640
