92
 SCF done       -194.315581727184          0.000864391855
C          -5.63340928826272   -3.82439685933085   -2.04884028338733
C          -6.18412926268283   -3.97756025279731   -3.29549171033848
C          -5.94295531438195   -5.08615817704878   -4.13541206654573
N          -5.79719456694238   -5.95667317362751   -4.86928874169704
C          -7.03706590446168   -3.06461064139058   -3.95116776642385
N          -7.71855625494892   -2.37500960193610   -4.56775775546154
C          -4.68482747414127   -4.74447159024584   -1.43627584484131
C          -4.24313474271591   -4.18983880973305   -0.20992292259571
C          -3.32578088641039   -4.81364400589281    0.60130316562649
C          -2.81986327779121   -6.04774145528953    0.18377696921613
C          -3.27196163126752   -6.59981396199068   -1.03969196216263
C          -4.19865307937207   -5.96771618653837   -1.85988908748706
S          -2.51844757136458   -8.13089901192949   -1.35421136817605
C          -1.62174750329937   -8.02003031841943    0.12057879740238
C          -1.87002788515376   -6.89299206647375    0.82301093161813
C          -4.91125880033337   -2.89933330108329    0.02044150864817
O          -4.75209595984782   -2.18156545833141    0.98499517583181
C          -5.82206816093562   -2.70368509793170   -1.13689242786423
C          -6.75605406052662   -1.72376236700521   -1.32375810589093
C          -7.03147360993300   -0.54352176777714   -0.60141862259956
C          -6.39383773853208    0.08818028202622    0.45889176858495
C          -7.01166571890245    1.28297289018061    0.80364761631478
C          -8.14038622213624    1.57680511819236    0.00575965692523
S          -8.42857016274580    0.38578472030873   -1.16913382634747
C          -8.69179220680892    2.80817768485008    0.43686963925394
C          -7.91188163905185    3.29722486966147    1.50293471420324
C          -6.83142051987195    2.35780846011386    1.76679049898967
C          -5.85651301867297    2.47786725772514    2.71123223287315
C          -4.82346229226561    1.53082685032675    2.88913126936336
N          -3.96167473771162    0.79501055388351    3.05905996758705
C          -5.80158066839274    3.58427687144412    3.58727040319395
N          -5.75306504828595    4.48072019053573    4.30014150182938
C          -8.37226710066404    4.51721000463270    1.99106384990934
C          -9.49327890090668    4.94985768672854    1.30366281506446
S          -9.99061671843029    3.84545865994065    0.04044280106663
C         -10.23192815900258    6.13620925433639    1.51813107694512
N         -11.29697531404371    6.46336307193710    0.84481963609452
C         -11.78258983681850    7.62841854828850    1.26667496526680
C         -11.08154630917767    8.25954608043345    2.31204617657222
S          -9.73307944169394    7.30186400983993    2.77256479513620
N         -11.56828866507037    9.42102093251573    2.73966767443749
C         -12.64017547004868    9.74660672807018    2.07668405875667
S         -13.13597069437600    8.58429399922454    0.81654665361155
C         -13.37752160008864   10.92684192539661    2.33605412623025
C         -13.06263344756904   11.88052995176425    3.29104538434450
C         -13.99831673780172   12.91042755709693    3.31336932197379
C         -15.02990757091378   12.73515041387875    2.37004635700537
S         -14.84131979117384   11.30676662479416    1.45573431826244
C         -15.94057443020509   13.81550428729910    2.48683203774150
C         -15.47975928891469   14.67464337416866    3.50364862484146
C         -14.25088236089864   14.13413173389890    4.05848936974351
C         -13.52183478852260   14.65642958094964    5.08518215764106
C         -12.33754514002045   14.05402172964741    5.56092448512019
N         -11.37018731936559   13.57706660813682    5.94879352267028
C         -13.91845203862117   15.84540327228172    5.73438176334714
N         -14.25150791269123   16.81427496240031    6.24879536522107
C         -16.33016351400299   15.74945659413781    3.73052380283826
C         -17.44301131678092   15.72067578345755    2.90431466701257
S         -17.40272623579962   14.35202212190775    1.80090812036469
C         -18.51691719070251   16.63975534865557    2.84018615391886
C         -18.92426420294825   17.52768588082569    3.78551877774889
C         -18.62658616560413   17.68780812667200    5.19560629128116
C         -18.32428356311197   16.69375980750534    6.08960892877599
C         -18.18924926413418   16.90056175869276    7.47896939030492
N         -18.07575038290075   17.01095332409859    8.61524885381952
C         -18.21038244758824   15.33226727244300    5.74844224240577
N         -18.13410645232880   14.20809066003289    5.52661265033915
C         -18.98389109289940   19.05413297415516    5.55722995623973
C         -19.71084199953272   19.63580596914328    4.48542537239485
C         -19.78335787486883   18.67744000397258    3.37042294460483
O         -20.36376505995365   18.79374014777767    2.31608740935894
C         -20.22045162658879   20.91076233297704    4.55030302287217
C         -19.99157221054989   21.64730631980241    5.71651680442446
C         -19.24746939844358   21.06348762163831    6.77138359018018
C         -18.73907056459103   19.77122018733613    6.71174086899708
S         -19.07611818811742   22.16135356512011    8.10272647620627
C         -19.98749818774862   23.36482362469243    7.25936612687433
C         -20.40235130290358   22.97227550110561    6.03491717858438
H          -3.00940527093144   -4.35889029201712    1.52715700036016
H          -4.51118105043298   -6.43285687356492   -2.77955734113322
H          -0.95299493072823   -8.81949218578019    0.37426662641074
H          -1.40501868337828   -6.65354647411771    1.76207303923565
H          -7.41560620069339   -1.85322781601659   -2.17398066883058
H          -5.52833483765487   -0.32984828518569    0.94161186366070
H          -7.93337575886055    5.07502375744966    2.79857787367538
H         -12.19518614778325   11.79393291019086    3.91869903644229
H         -16.14283900173474   16.54136881781564    4.43251119320311
H         -19.05337602842227   16.69264305049863    1.89774309318439
H         -20.77823967758870   21.32673190331416    3.72575291163390
H         -18.16906230491928   19.36969260565527    7.53330250489758
H         -20.15859252089542   24.30842879313211    7.74005364923692
H         -20.97918509842167   23.58753252042532    5.36847492612773
