107
 SCF done       -209.402113569078          0.000842336297
C          -2.32866549667568    1.56082671169106   -0.23588145372841
C          -1.49322336017832    1.04293734856477   -1.18975164687905
C          -0.20444424252709    0.53777026474558   -0.91513456961892
N           0.84919574382117    0.11178723920376   -0.75459519595614
C          -1.75610078465541    1.00061588586020   -2.57666770510470
N          -1.86886969105683    0.96168069575563   -3.71842937184853
C          -1.99579348331822    1.74560330087933    1.16956593600768
C          -3.02052651254823    2.51129928509764    1.77805963122410
C          -2.98622327689196    2.87423179742752    3.10317671879915
C          -1.89406089345304    2.45349109961368    3.86722489130006
C          -0.88001082135055    1.67880564060006    3.25335348952297
C          -0.91074483833727    1.31792867032706    1.91164413509749
S           0.36707045143648    1.26478600810281    4.38664107021027
C          -0.46112481763135    2.11389571839856    5.64537941671397
C          -1.61789304674365    2.68481371149556    5.24420891382078
C          -4.06796954302171    2.82349242512874    0.78825335922556
O          -5.04721217037678    3.50708033992600    0.98865257906312
C          -3.65905373316660    2.11063849452924   -0.45535426726610
C          -4.41103836545863    1.85311720769317   -1.56507312731434
C          -5.70189062355203    2.33415498725061   -1.88573719612052
O          -6.30335734207822    3.29681840281757   -1.17856459136221
C          -7.50317823989662    3.59056819763478   -1.71795545577429
C          -7.69850754329955    2.77484357691317   -2.84703047710829
C          -6.54476518634275    1.96771125204378   -2.94118212425938
C          -6.32247254290318    0.93641212627776   -3.99256296132817
F          -5.49036404498213   -0.04072516072822   -3.59287064018761
F          -7.45781469905879    0.32728579399972   -4.35847948389765
F          -5.78889362896817    1.45149969095519   -5.11374215734305
O          -8.69120132625373    2.66885485966985   -3.73912944127139
C          -9.84167722988385    3.47405902504880   -3.61872158459494
C          -8.27748673847119    4.59784938178706   -1.07515114100070
C          -7.84232156815558    5.21031486039279    0.05393611061029
C          -8.55559403139521    6.23435952937091    0.73436043276700
C          -9.81144678720098    6.72852422130180    0.49384382886404
C         -10.19288371105869    7.77613087408085    1.35898504508161
C         -11.39763919143270    8.51213676683523    1.35270895851728
C         -12.44622325536532    8.29652453915726    0.37678280522193
C         -13.79793722782403    8.34535893346505    0.57278084626281
C         -14.54532131004259    8.15335958448620   -0.60613226140869
C         -13.77722895385344    7.97133511940797   -1.71374093901904
S         -12.09168470690490    8.01911690856812   -1.30966354487291
C         -14.20969302076046    7.74521126763450   -3.11743032673563
C         -11.52493688441864    9.49656211954075    2.32614849284410
C         -10.50830159246998    9.79500596229733    3.26955979676032
C          -9.29480529823971    9.07247871257051    3.26676379969031
C          -9.18388143632916    8.06410948996322    2.31569997366300
S          -7.79316201764373    7.04128690520282    2.08733676584828
C          -8.20588647891584    9.37498589701422    4.17040403955364
C          -7.35517525110319    8.49966420476194    4.78843282467959
C          -6.37006219858623    9.13485708919514    5.56800662876771
C          -6.44632141436690   10.49400703386918    5.53858820405461
S          -7.76322531537838   11.01998225849443    4.54579856389053
C          -5.58333646607903   11.48725902827661    6.22850459884873
C         -10.88586674019110   10.84704951137980    4.13034590822625
C         -12.12033957370211   11.37157019650125    3.85280959545647
S         -12.89495933248482   10.55664177312777    2.51341475182840
C         -12.74357542077360   12.47489762435682    4.51123616681704
C         -14.01324197324626   12.93522152905005    4.17992677292204
O         -14.73076907646696   12.22451668227287    3.23811296660332
C         -15.71947891493815   11.37752218372823    3.79954663179462
C         -14.59490412065756   14.09588535132885    4.75712483581311
O         -15.79694701893794   14.55801456609085    4.33077170304931
C         -16.10478998080405   14.55662458202385    2.94456301301919
C         -13.99649575228496   14.80096287668140    5.82188343367710
C         -12.72697041761736   14.30411520811506    6.22496863848300
C         -12.09602960563746   13.18869961218701    5.55448933216582
N         -10.92134641848955   13.00133233968810    6.11727432078817
O         -10.80855163380424   13.92299722496411    7.06717379967917
N         -11.87864273171874   14.71333673835982    7.14709019172858
C         -14.68309510187877   15.94884738371599    6.32033559994468
C         -14.47437678043947   16.77257438208751    7.38107505505362
S         -15.58546231380115   18.12740561539183    7.61098012798484
C         -14.73428731975550   18.66353674414774    9.10904657018805
O         -15.07658045271743   19.61910376392231    9.74798940266578
C         -13.63177871021574   17.74494904182817    9.33563260687339
C         -13.50013549886489   16.75873362089905    8.43208339716367
H          -3.78026266481116    3.46353003351062    3.53509120349646
H          -0.11618531638472    0.72438506187170    1.49157378736968
H          -0.02214892082153    2.13445510431577    6.62395687155206
H          -2.26443406426988    3.25269602746599    5.88844994337409
H          -3.99872807066344    1.17905293536154   -2.30254301227678
H         -10.48289505012639    3.17705708186847   -4.44716213994170
H          -9.59583778085621    4.53550105692923   -3.71281407089763
H         -10.36015554539560    3.28831105209837   -2.67412710345881
H          -9.22204465960768    4.87189024654376   -1.51188277920628
H          -6.88807598259318    4.91855742901673    0.47004934088920
H         -10.45156704013374    6.34028871112262   -0.27567186134240
H         -14.24721423768644    8.47917395565581    1.53982117134295
H         -15.62065702499036    8.15401942515371   -0.63064972526471
H         -15.29086036144969    7.83529400008363   -3.19085475063838
H         -13.91797248731943    6.75085449243247   -3.45668913697897
H         -13.74896805426521    8.47259258217473   -3.78500317491176
H          -7.45516512741741    7.43160545784789    4.72031408515347
H          -5.62694189182585    8.59964526873257    6.13206634842446
H          -4.81884482368834   10.97681054574246    6.80926715988357
H          -6.17627192866375   12.11157761473808    6.89649315650021
H          -5.09734323618489   12.14300286575415    5.50629735816228
H         -10.28451760168906   11.22155728639748    4.93644920212936
H         -16.44498786982140   11.94282026373763    4.39198887697863
H         -15.26302801338837   10.61062923844069    4.43345152119358
H         -16.21679655713069   10.90190517776719    2.95681106013318
H         -15.20395249778216   14.59991454052566    2.33168909739599
H         -16.70380109374595   15.45320289344384    2.77874210368864
H         -16.69030505412618   13.67949136361735    2.66315475676851
H         -15.55526199903598   16.19180551685483    5.72589003313588
H         -12.99762576237348   17.89828095759255   10.19120767290456
H         -12.73494824719117   16.00447797686163    8.45037798955221
