138
 SCF done       -274.561531891396          0.000878789477
C          -7.31657243193750   -1.70414509667286    4.79417639117394
C          -6.91446447484631   -2.69671757868693    3.93970114609928
C          -6.75082859089673   -4.04580107634445    4.32113629650172
N          -6.60215256827500   -5.15809549177973    4.56259678591674
C          -6.55553532061717   -2.53466148640754    2.58388531271571
N          -6.22117361976458   -2.49889361794194    1.48570123027220
C          -7.56769061332969   -1.87755352558017    6.21820144339825
C          -7.76695265429133   -0.60100733120587    6.79763609437528
C          -8.01042729021527   -0.42468313121706    8.13870924887758
C          -8.06811403197043   -1.56333872499412    8.94685266141857
C          -7.87677238463843   -2.83670552012974    8.35784328360609
C          -7.62531279521014   -3.01444862846852    7.00269415375302
S          -7.99660638038232   -4.10039246219671    9.54117281749125
C          -8.29245784371558   -2.93855748002350   10.78767882993818
C          -8.30412923032196   -1.66156423504536   10.34704737063022
C          -7.67047700416383    0.43812243881416    5.75855240618892
O          -7.73276735959803    1.63417608408769    5.95689207350841
C          -7.48889623945043   -0.29052761929773    4.47708203951344
C          -7.57851221803716    0.17992868167004    3.19842180300892
C          -7.75078866485934    1.48942898100851    2.69183588415233
C          -7.76486251962538    2.71961919481214    3.30001805106487
C          -7.96216940284932    3.79309015015589    2.41070107367519
C          -7.98847760236238    5.17159988720312    2.72300512067977
C          -7.91294424585706    5.66140911677913    4.08260704853561
C          -7.25731888738431    6.77181109119900    4.53812309613236
C          -7.43892122907327    6.97829600187100    5.92072176135394
C          -8.23765041688953    6.05259951488373    6.53019855918015
S          -8.77762722435607    4.88359401183714    5.37956180780205
C          -8.64116816646438    5.96648221438043    7.95612411862763
Cl         -6.70782489539622    8.29361960748938    6.75761437098110
C          -8.11358166521362    6.04173133436602    1.64910026386311
C          -8.23645176925683    5.61534140060272    0.30108695562938
C          -8.20995677182295    4.23993509774663   -0.01275965168142
C          -8.07858481833598    3.36278914635062    1.06133830630328
S          -7.97053286130014    1.63411166317164    0.94865337595149
C          -8.29392827028624    3.74895663231710   -1.37244469695839
C          -8.92349724880259    2.62250006875909   -1.82152405302273
C          -8.75694383302599    2.41767228374361   -3.20788755307979
C          -7.99549198353780    3.36257521034761   -3.83280395004320
S          -7.47159876490155    4.54839365188962   -2.68779579072056
C          -7.61623900570759    3.46050065432374   -5.26397659680533
Cl         -9.46516789294808    1.08037167194950   -4.02839510901893
C          -8.43544599501098    6.70475184471808   -0.57770300195115
C          -8.44772941318229    7.92158140072834    0.04737888661319
S          -8.21234545587655    7.77646242215239    1.77459960828641
C          -8.62424478073799    9.19988583322128   -0.55182879281296
C          -8.83635069226148    9.48007052295609   -1.88859578474175
C          -8.97560356590192   10.84966618409668   -2.11757692254450
C          -8.86324081759765   11.61439286103050   -0.94479243773834
S          -8.59097109043162   10.65048941531945    0.43538620898904
C          -9.02489668582536   12.98421010349860   -1.28061823713531
C          -9.24585116151072   13.08235992206529   -2.66414708199278
C          -9.22020961610988   11.74567390059601   -3.23700002096587
C          -9.39297235072561   11.40383227012347   -4.54652492754898
C          -9.33596872710326   10.06421544296892   -4.98457102793235
N          -9.28636859192030    8.97472808305642   -5.33899957975751
C          -9.64127643141723   12.36723952283175   -5.54651946932149
N          -9.85030678582551   13.15327022702627   -6.35499074994779
C          -9.42446759410484   14.39830237518904   -3.09349347302868
C          -9.33800140870607   15.29790651219650   -2.04786719331962
S          -9.03161169435763   14.50691847162466   -0.51213506420306
C          -9.47868644949818   16.71260211265202   -2.11011325444147
C          -9.75217596599858   17.47219998189341   -3.21423803053454
C          -9.84733668747247   18.85556417022662   -2.94018522885634
C         -10.13780943877137   19.90155364448972   -3.84018356652570
C         -10.41369513440916   19.67875533609793   -5.24476293402414
C         -10.00663665278443   20.44197694467792   -6.30194790967823
C         -10.49471553394642   19.96980108647714   -7.53932047772051
C         -11.27996341429033   18.85691300702417   -7.44905460501657
S         -11.42049119846160   18.36586296374904   -5.79549584410691
C         -11.95037553923413   18.09707295054825   -8.53298894682564
Cl        -10.12195549612631   20.75414938317344   -9.02571158946745
C         -10.14094087382560   21.18686740281301   -3.31063084150368
C          -9.87428368757488   21.47601150575444   -1.94910350519507
C          -9.61644370502726   20.42558284224033   -1.04271587707720
C          -9.59649560508108   19.14281695611201   -1.57403215711256
S          -9.30479398919423   17.68598721078181   -0.66683401044625
C          -9.40593390359369   20.68627336894343    0.36606263700598
C         -10.08864448142619   21.55434628327874    1.17093975193122
C          -9.61126398998169   21.55308814504307    2.49831959540856
C          -8.56862387704515   20.69990531412299    2.72189601523842
S          -8.16196815970835   19.86271209883902    1.26514508766798
C          -7.81790685014215   20.47154814730405    3.98225790633911
Cl        -10.29451760561345   22.54389866033612    3.73010128564865
C          -9.89794074312829   22.86470086233806   -1.69193699610054
C         -10.17852126379457   23.62962171478866   -2.79265191129061
S         -10.48916186213099   22.63638926021526   -4.20522181152277
C         -10.29539135807613   25.04678656847647   -2.81536883736771
C         -10.25171906654508   25.88746609334958   -3.87758720263404
C          -9.84776466285976   25.69164520365097   -5.25711593644723
C          -8.83656444879647   24.87509400159713   -5.68699798501152
C          -8.42884843276871   24.77130573098502   -7.03222291412368
N          -8.07373941566671   24.63762430887135   -8.11535615264616
C          -8.02564625060659   24.12496063701998   -4.80839658701798
N          -7.30544542846243   23.54862403897076   -4.12517763558099
C         -10.49938680489906   26.72792373653311   -6.04598268551983
C         -11.05808819218095   27.68702603959069   -5.16005378201930
C         -10.84252141761970   27.25345465228626   -3.76777680982066
O         -11.12858341926073   27.83729298703679   -2.74856532874119
C         -11.69739834313574   28.81695883575392   -5.61142954330897
C         -11.80028443188014   29.00203157232445   -6.99337196256067
C         -11.25260454246852   28.03074989530483   -7.86688243124506
C         -10.59675216768441   26.89220684383155   -7.41354670249458
S         -11.50884006773496   28.46323773506159   -9.52715550748799
C         -12.32352042265325   29.91258217865126   -9.04977169539424
C         -12.40671714207237   30.07153447858315   -7.71101549816079
H          -8.15313289503586    0.56309736435264    8.54878015719448
H          -7.49042632194506   -4.00552602525020    6.60336287722732
H          -8.44211842214593   -3.28979185745281   11.79016742671040
H          -8.47248576883027   -0.80818462421656   10.97871227422909
H          -7.53959737025402   -0.56721678011031    2.41385091220232
H          -7.62079631986156    2.83196996360166    4.35755901954982
H          -6.63210936027497    7.39891004960191    3.93018288310915
H          -8.06764443357493    6.67827940324609    8.54480278439361
H          -8.46816478051178    4.96180123044905    8.33814850336159
H          -9.70184459254464    6.19175017616078    8.06999987222225
H          -9.51931990127879    1.97562285549926   -1.20518748600403
H          -6.53883438667478    3.34586856394111   -5.38455712161086
H          -7.89747057986038    4.43187940017985   -5.66904202373556
H          -8.11819056149721    2.67920443752270   -5.82933528797583
H          -8.58187322759010    6.59625287925374   -1.63502063628248
H          -8.88649606249371    8.72213219596111   -2.64772572990922
H          -9.60865498931121   14.69323234981642   -4.10951375793147
H          -9.87777586799763   17.05169205445459   -4.19350291243325
H          -9.34377632934003   21.28346370420931   -6.22016189405291
H         -11.73387862080369   18.56267102909874   -9.49099532896311
H         -13.02929407370367   18.08068176173690   -8.38138143768006
H         -11.59932507740501   17.06577197547312   -8.55121904520777
H         -10.93091142328800   22.13852725578949    0.84929681927745
H          -6.98932358798705   21.17671546994048    4.06593106612141
H          -7.41163690516233   19.46330818356244    4.00722317795762
H          -8.47532630259703   20.61875400462718    4.83716892680763
H          -9.65695244068190   23.29695692384646   -0.73803333246513
H         -10.52850015009687   25.51127448219111   -1.86185788892613
H         -12.10455264205660   29.53689262691571   -4.91855385764580
H         -10.19895717156336   26.17399512281830   -8.11177800140497
H         -12.69651393579834   30.56595991798142   -9.81437679056831
H         -12.87805332348642   30.91062691148694   -7.23218647153374
