124
 SCF done       -243.782313246602          0.000920831526
C          -2.10415312843578    2.07638841655905    1.55377013668627
C          -1.08386389246536    2.50185529249319    0.73839278098160
C           0.26997120487294    2.15121178155473    0.91631241029658
N           1.38843467564552    1.90477878946313    1.00113900900605
C          -1.22778383745592    3.34017919387102   -0.38496295127035
N          -1.26273164320224    4.01296923974594   -1.31640314941834
C          -1.94947890386071    1.20464519299690    2.71512531942215
C          -3.22671991349185    0.98457648425983    3.29189446455323
C          -3.41393149002961    0.20434202693938    4.40645708034093
C          -2.28664591141857   -0.39087963672059    4.98201234908543
C          -1.01666655977976   -0.16944408952846    4.39896171032994
C          -0.82748807922453    0.62179166974907    3.27076043557741
S           0.22951436867750   -1.00331709405418    5.27249938520201
C          -0.93550237465749   -1.62658126411448    6.38843826488216
C          -2.20118507228934   -1.23404226392553    6.12550758009582
C          -4.23616239428709    1.70990797698128    2.50635360791747
O          -5.43925934150603    1.73821548274071    2.71613848035655
C          -3.51188606487088    2.38721856032075    1.43126151200958
C          -4.09013899714983    3.18748280296368    0.47323839404080
C          -5.43013738506721    3.51388759016717    0.26981516196867
S          -6.81751337117489    2.97822693516203    1.19319210523908
C          -7.93073817805024    3.84060763531257    0.17313164454043
C          -7.25433173046029    4.52229367295142   -0.82929356741379
C          -5.85304376768758    4.34792778475947   -0.78704782257335
C          -5.19681324449684    5.04157906823274   -1.82634555143721
C          -6.07980310522201    5.71436833117813   -2.62335839654669
C          -5.81216937066036    6.54053464034436   -3.80344769587603
O          -6.67401938696328    7.07989093910168   -4.45501021767994
O          -4.50342872995027    6.62485417407720   -4.06600586620221
C          -4.14789749300300    7.40557111051878   -5.19815490517923
S          -7.74698682052884    5.53555818428773   -2.14535582006212
C          -9.33112235713052    3.78156770393558    0.38033584247870
C         -10.30082579123684    4.41716002598545   -0.34897637764138
C         -11.61465451126435    4.11824736161983    0.07046763841315
C         -12.82752563714850    4.56166450854610   -0.49999512646031
C         -12.86929840193048    5.40290380336229   -1.67776994007886
C         -13.74124042547751    6.41921197438604   -1.95066394712660
C         -13.51592545509062    7.00787984035888   -3.21300815616909
C         -12.49201203301519    6.45115506089753   -3.92396866337676
S         -11.77662546708811    5.16483431495203   -3.01715097903852
C         -11.97737452796341    6.81702953683511   -5.26679766292443
Cl        -14.46329576246891    8.32287824418762   -3.79302008479713
C         -13.99403453274950    4.12384253194666    0.11785914108033
C         -14.00538971520241    3.26305378805125    1.24494414677323
C         -12.79415523316653    2.79808949637491    1.79653593804024
C         -11.62536289230218    3.25381825653527    1.19540211365859
S         -10.00855107740140    2.80312871618040    1.66281457694495
C         -12.74610253465372    1.86017647818643    2.89977289809238
C         -11.84894666734865    1.82139301635007    3.92890714103439
C         -12.05537326763875    0.72402083789817    4.79221755980020
C         -13.08958153430591   -0.09107131864802    4.43510867400166
S         -13.84524350772083    0.50973868335573    2.99927172685668
C         -13.57980987543275   -1.32401560774878    5.10091267157110
Cl        -11.07155365476880    0.45040342045492    6.17783270379556
C         -15.32347500786559    2.96910297406088    1.66637445257709
C         -16.29024931117677    3.52736337784164    0.88228812947564
S         -15.61397946872856    4.48896239143492   -0.41307355109170
C         -17.70098454403947    3.38013892889417    1.02012715839501
C         -18.67512711126214    3.80561464440874    0.16201626544658
C         -19.97877353170146    3.45205147351644    0.57955738588321
C         -19.96989636507496    2.74814229855660    1.79681660236338
S         -18.35766443444398    2.52580520727395    2.40368660081884
C         -21.11491085560275    2.26033087076703    2.41515219414171
O         -20.89668141432688    1.59236495408904    3.57374918812987
C         -21.81385361981711    0.63757051592758    4.05977805241282
C         -22.33738778169954    2.53512827579214    1.77318704885810
C         -22.34260296356333    3.21530156680776    0.51124732304065
C         -21.19373722117372    3.67906301564058   -0.10534567049816
O         -21.05630853248343    4.33049420208421   -1.28590307491726
C         -22.13358012507171    4.43327285805628   -2.18666614265334
S         -23.98292746995913    3.37574126489472   -0.08986704943629
C         -24.63553788839659    2.56786916653590    1.31718923197078
C         -23.65110236725055    2.23437869923087    2.20451225137463
C         -26.03000590597338    2.34793069371447    1.48745905623414
C         -26.96724620862957    2.17795545470040    0.52078562899735
C         -26.83561490828119    1.92363520048814   -0.89892315918941
C         -25.81696346775944    1.22383343716973   -1.49336121114845
C         -25.74095058991466    0.96574271873788   -2.87551737015819
N         -25.61736777826761    0.75110519676845   -3.99654408914038
C         -24.78643715672969    0.59899243293486   -0.76095139637517
N         -23.97692792602342    0.01966080855350   -0.18797847946397
C         -28.09983790480157    2.28749473830363   -1.52252848199049
C         -29.05781333298733    2.52035085755183   -0.50037591908028
C         -28.41242035144821    2.37921423217866    0.81872807765956
O         -28.92270852304889    2.45598162489603    1.91286357665628
C         -30.36764925194895    2.82752243764140   -0.78005848204604
C         -30.74579348015385    2.91939215742029   -2.12328555420893
C         -29.77818856352090    2.69925116376790   -3.13335037777406
C         -28.45471767982893    2.37938130373206   -2.85380854770871
S         -30.46991061296180    2.87253292583480   -4.71494356707591
C         -32.01756825422554    3.22392390670843   -4.02656426772745
C         -32.02356772186645    3.21714622424853   -2.67590204267789
H          -4.39937199054806    0.05807423797168    4.82084177755312
H           0.16146158406901    0.75886474004714    2.86657549056424
H          -0.59501066660561   -2.25913456231521    7.18506350525687
H          -3.05538312585850   -1.52224022778036    6.71114881742220
H          -3.42615760650606    3.64175020413851   -0.25042754065382
H          -4.13542995420218    5.05409298212618   -1.99607422061046
H          -3.06202061676337    7.43923475298676   -5.21161629446594
H          -4.56595851944169    8.41049759185408   -5.11241749581696
H          -4.52901192802504    6.94305775230656   -6.11098719636409
H         -10.06718556872087    5.08299573470475   -1.15731108112245
H         -14.49263101450837    6.77083153239481   -1.26871042295860
H         -12.49202001544426    7.70381665851810   -5.62805851410018
H         -12.13755416825363    6.00376681314427   -5.97457149894677
H         -10.90743881264023    7.01695557443739   -5.22358768975746
H         -11.08820285669634    2.56046707363950    4.09696989363515
H         -13.01606535727618   -1.49524326864162    6.01445862661395
H         -13.46115148224455   -2.18688575275842    4.44584336855795
H         -14.63720495490930   -1.23286564387626    5.34612529515393
H         -15.56530696991758    2.36332188970058    2.51987784302142
H         -18.47445401706310    4.34343153126672   -0.74651566655054
H         -21.22454231927224   -0.04467249283397    4.67332496183908
H         -22.28512089840626    0.07964520507393    3.24780677343988
H         -22.57504427976830    1.10529489689525    4.69169894836390
H         -21.71336635707632    4.89046851555181   -3.08166718763535
H         -22.93065821911947    5.07351419597995   -1.79884343680285
H         -22.54127721071763    3.45191908219617   -2.44293155141363
H         -23.89462641037667    1.75556290112741    3.13328792761576
H         -26.39897579071896    2.37700320223547    2.50791862761421
H         -31.08016374557448    2.98886820712802    0.01393659717056
H         -27.74834351402104    2.22218377407946   -3.65250699868581
H         -32.83984259576136    3.41731313354312   -4.68767383130477
H         -32.89397618477366    3.41375626177784   -2.07652534068106
