118
 SCF done       -230.217579069905          0.000865900991
C          -1.69193662483084    1.01948387802085    0.03090731492988
C          -0.61944156578772    1.60051449555520   -0.59865454932190
C           0.71154503803406    1.15342626465034   -0.46860707509728
N           1.81422943363388    0.83964746070078   -0.40670148393661
C          -0.67941178866035    2.72227967562007   -1.45032582443004
N          -0.64555229668430    3.63285816329089   -2.15023243130433
C          -1.62248050210882   -0.12950634158178    0.92947886824533
C          -2.92663221759620   -0.40838860680676    1.41231696630569
C          -3.19318903681341   -1.43926105997610    2.27998441916727
C          -2.12162710896720   -2.23800183835041    2.69148476816125
C          -0.82357994488667   -1.95411366622272    2.20484539762982
C          -0.55406472135486   -0.90885154425327    1.32778955105148
S           0.34357744437374   -3.06896789481606    2.84164100312623
C          -0.88997119451433   -3.88861611408956    3.73482715017861
C          -2.12135103624580   -3.35807707598097    3.56964532590066
C          -3.86826220073200    0.55739187566186    0.82866749915766
O          -5.07026223806751    0.61839872715918    1.03919997734030
C          -3.08087485207159    1.42163666777404   -0.05073726940598
C          -3.59762958646011    2.41608670241850   -0.84780711176601
C          -4.91821782490824    2.83858873888949   -1.00564838451034
S          -6.33905419475047    2.24207140323411   -0.17594547289521
C          -7.39770538049606    3.30986736403529   -1.04982249161783
C          -6.67973126479872    4.09032718012348   -1.94404869137700
C          -5.28818916971618    3.84488613968852   -1.92254923125166
C          -4.58810010037960    4.66402420744160   -2.83483829795640
C          -5.42737898235451    5.49766111654415   -3.51882730565894
C          -5.04566548672638    6.47921433750230   -4.53585584100860
O          -3.91956737245060    6.67699050187522   -4.91424987873131
O          -6.12249170776110    7.13830498016310   -4.99504988293156
C          -5.87088582655683    8.12231182830966   -5.98590690723608
S          -7.10780667356689    5.32152164863342   -3.08609790163738
C          -8.79971590156737    3.29478005869364   -0.84255458483213
C          -9.75075635403036    3.97129110360739   -1.56037737347400
C         -11.07115653767270    3.71242814883202   -1.13640850684486
C         -12.27178974687184    4.19661530716370   -1.70124461913855
C         -12.29856069861699    5.04640376127710   -2.87266494551073
C         -13.13733313527032    6.09625441732385   -3.12853038290992
C         -12.92177305101937    6.69157932607531   -4.38619388415867
C         -11.93312530404512    6.09559875695738   -5.10716425192660
S         -11.23357420117628    4.77760145736610   -4.22802576352573
C         -11.43287488984352    6.44241461836967   -6.46232422038468
C         -13.44613603202155    3.78801245607741   -1.08136507204316
C         -13.48258679890527    2.93418154784491    0.05051864304898
C         -12.28294704090938    2.43425190159805    0.60291120521229
C         -11.10569625827354    2.84484657511688   -0.01450715260608
S          -9.50225177986515    2.32790209138254    0.43365467649914
C         -12.25588274290184    1.52549271119482    1.72887086345278
C         -11.35437647291175    1.49240176525146    2.75764431686034
C         -11.58875438102669    0.45044226534649    3.67468958233818
C         -12.65550714817176   -0.33071856116201    3.35090777781062
S         -13.40721081912598    0.22418703676113    1.89267924289629
C         -13.19763554470712   -1.50957157650151    4.07348443696903
C         -14.80553832023665    2.68049194046736    0.47592850844768
C         -15.75976490830451    3.26082109625416   -0.31535053168100
S         -15.05480058966202    4.19602760294902   -1.61491917158117
C         -17.17042708091932    3.14877894471517   -0.17826622872600
C         -17.86291812822190    2.55008768951080    0.86087973410682
C         -19.23969326869911    2.57778058116770    0.65129585518799
C         -19.59767890586252    3.19672956479363   -0.55910620699994
S         -18.23708626211607    3.75792620991043   -1.42734777309910
C         -21.00454742029860    3.13601916790189   -0.69523150143966
C         -21.54247106002842    2.49725213008590    0.44067515535308
C         -20.45060670957942    2.12825130813958    1.32370954465987
C         -20.53299830349712    1.48999769013736    2.52643751668866
C         -19.38719171541624    1.17001157992669    3.28448505863385
N         -18.45872566913385    0.90767258634502    3.90452298175869
C         -21.76735483287712    1.11364123883268    3.09716152964737
N         -22.76806712289673    0.81626372121401    3.57081791513751
C         -22.92807980126032    2.38198688970829    0.38756562583335
C         -23.45275072800125    2.87567317121221   -0.79562508612247
S         -22.19799696309589    3.56594980110833   -1.82813591000018
C         -24.82206028504081    2.90795903721291   -1.14992929792799
C         -25.38674902559625    3.01187354594134   -2.38274839313273
C         -24.85275766715560    2.83391790523241   -3.71697219045977
C         -23.85762561192366    1.96179038634082   -4.07759636047909
C         -23.44042747962554    1.75225516413203   -5.40681523969100
N         -23.05354419005985    1.55801715753185   -6.46995284990666
C         -23.21116447297403    1.10470173967936   -3.16401770350661
N         -22.69114075586446    0.36243641538552   -2.45904975986612
C         -25.76351935821233    3.49901404780068   -4.64010264926967
C         -26.94529588162111    3.84887680072469   -3.93588440748460
C         -26.79440557017489    3.48229995551564   -2.51519908892788
O         -27.60876778431328    3.58460572113051   -1.62685428472824
C         -28.01994829438824    4.44046105273824   -4.55509392444102
C         -27.91965216595860    4.70897579011492   -5.92383235074935
C         -26.72847085920697    4.37233041561771   -6.61144544311458
C         -25.64367028453090    3.76528773460930   -5.98956824136820
S         -26.82670773062108    4.80561417376797   -8.28853241461459
C         -28.43033200412410    5.41342993756143   -8.06281486414150
C         -28.87727557915907    5.30427304414664   -6.79285930414879
H          -4.19764177682020   -1.62421381178684    2.62786142281616
H           0.45261646486494   -0.73672072425134    0.98569941921887
H          -0.61174524230673   -4.73091030357719    4.33795265533693
H          -3.00856146159443   -3.73525982279843    4.04525551530712
H          -2.89927358238595    2.95662192570508   -1.47341006656395
H          -3.52464127200844    4.66237502370867   -2.99408776258962
H          -6.82079427456414    8.61685668715582   -6.17125988919296
H          -5.49717027922232    7.65322120193173   -6.89850089018227
H          -5.12659244804261    8.83706844708538   -5.62912510919176
H          -9.49921322297760    4.62869375510433   -2.37084359656652
H         -13.86040537555271    6.46082206402959   -2.42150935137022
H         -13.48379507855186    7.53606978949567   -4.74339652245019
H         -11.95279981248320    7.32076260797333   -6.83701344362930
H         -11.59463466378083    5.61676587316336   -7.15527274243097
H         -10.36316591402382    6.64819802089820   -6.43489220272397
H         -10.56977621466360    2.21685250943601    2.87903438243338
H         -10.98327418069900    0.28628466124326    4.54811330031876
H         -12.61190588926366   -1.69676501006339    4.97019497614970
H         -13.16686200302424   -2.39684407568310    3.44112891439340
H         -14.23590558468707   -1.34136076659125    4.35873408111587
H         -15.05030004606027    2.08094270807047    1.33166484742925
H         -17.37955262550662    2.12048827274493    1.71818237579151
H         -23.54107664441456    1.92546620152290    1.14365081148366
H         -25.51972488018584    2.91546999675057   -0.31742932888298
H         -28.91250587043918    4.68541610880598   -4.00067586297248
H         -24.75354293044314    3.52947430820857   -6.54943461752276
H         -28.94697068948950    5.82148150571503   -8.90969860259435
H         -29.84880788734301    5.62843552408915   -6.46650315748014
