104
 SCF done       -208.621782319436          0.000245244716
C          -4.77852422990437   -2.28158475236006   -1.54384172566391
C          -3.49456434176646   -2.55537320125890   -1.14865828881800
C          -2.79239268825988   -3.72754635204900   -1.50001844475827
N          -2.16378375485732   -4.65533192845898   -1.74902449958465
C          -2.69724349617772   -1.73742503288201   -0.32138236179593
N          -1.99036406002891   -1.13749304324421    0.35673428072741
C          -5.61921460580904   -3.15731743722843   -2.35175034123266
C          -6.90247262475822   -2.56483311752449   -2.47841764964512
C          -7.92237406713281   -3.13379632361025   -3.20356310243777
C          -7.66042911180900   -4.35198060926215   -3.83557274839808
C          -6.38798928183055   -4.95496169164055   -3.68312823115157
C          -5.35716238980640   -4.37488470873013   -2.95175622931659
S          -6.30986855054273   -6.46737684132300   -4.53040681132508
C          -7.93885584959792   -6.27077501726989   -5.08658586210022
C          -8.52172897707530   -5.13205425584672   -4.65544623486471
C          -6.92306731349024   -1.30335080662039   -1.73586575309314
O          -7.88618410295303   -0.56548354734018   -1.59772080693724
C          -5.56534915871656   -1.10536249488089   -1.20721311138738
C          -5.10487533706370    0.02732917307622   -0.58783316400477
C          -5.79903223883574    1.19285194056568   -0.21566907815224
C          -5.16162213557432    2.30559970685843    0.35166162442849
C          -6.04744639966563    3.32487183195075    0.65836178624904
C          -7.37476905499477    2.96587505989077    0.33386068039452
S          -7.53925706049003    1.42872353517022   -0.36294416413209
C          -8.21481334070610    4.04486470190258    0.67351238090592
C          -7.45159997039879    5.09306168315284    1.21606619030297
C          -6.05505254525954    4.67198223845495    1.22025741883226
C          -4.98330886564636    5.39607427602633    1.65269346035181
C          -3.66455200286352    4.89748426268689    1.59745187396669
N          -2.58949594154313    4.50224985169653    1.55179841954156
C          -5.12957263310269    6.69728606864275    2.17731317689835
N          -5.25489905019174    7.75487037149097    2.60270071024142
C          -8.23517800115473    6.19466471450318    1.57502957791302
C          -9.57761865639966    5.98173231025264    1.30839186036987
S          -9.86845192070663    4.38926160954970    0.59998631891407
C         -10.71883443856472    6.81382201486131    1.50442992698230
C         -11.96038308837567    6.34087958611156    1.15114897747601
C         -13.16103414348769    7.01820506940493    1.26484034281379
C         -13.22643022145702    8.37412046346510    1.80152377976562
C         -12.12788474826670    9.04563647692415    2.22090406732792
S         -10.52294953524156    8.41865822281220    2.18319676926066
C         -14.60906921393094    8.71432444808709    1.74620172381596
C         -15.35035093504746    7.65163509989341    1.21197711744890
C         -16.72731283623289    7.95245977240203    1.14074158719691
C         -16.99271666871316    9.20079027141794    1.60852567343469
S         -15.59433632917417   10.06144065947773    2.15267219351975
C         -14.45387678699915    6.57076728456953    0.90226952147726
C         -14.63748772783697    5.29093982925826    0.35194566921767
C         -15.73312374078724    4.62340577227196   -0.11034053611673
C         -15.58804701971217    3.31869642701114   -0.64307391622398
C         -14.41327784250140    2.57347003841148   -0.76016413426655
C         -14.62114851452380    1.33515807669281   -1.34042615156992
C         -15.96788601571168    1.09789161469598   -1.68553061484260
S         -16.96741950001437    2.43252044514783   -1.27658352927557
C         -16.05725940509197   -0.17884874792521   -2.27548291123917
C         -14.76134918768574   -0.75506540224420   -2.29429746978796
C         -13.81762830984379    0.18326241752542   -1.73006506593802
C         -12.46008505037080    0.04330228689292   -1.64106201121430
C         -11.63497378273990    1.03784542188504   -1.07882686258606
N         -10.97481158836388    1.85064041638891   -0.60937000461185
C         -11.79959445925805   -1.10623392988125   -2.12310491490463
N         -11.27605626502616   -2.04538899380260   -2.52310960343024
C         -14.73458751018062   -2.01251932122126   -2.87397502434958
C         -15.98351967017839   -2.41905306092390   -3.32549497816906
S         -17.22290324474098   -1.20808620625855   -2.96947554587082
C         -16.35081580402218   -3.62275580666781   -3.95156508964009
C         -15.54399265643684   -4.57054173850053   -4.51781468779706
C         -14.15708063234768   -4.57309163264413   -4.91930770452776
C         -13.42434732059835   -3.50189704945511   -5.37090050295792
C         -12.09367436840846   -3.59699081292707   -5.81727731632678
N         -11.00147957636778   -3.62381126098931   -6.17209625686309
C         -13.93858602274574   -2.19927479732814   -5.51128944545825
N         -14.32210804794728   -1.12889853417351   -5.67351957862903
C         -13.73996872947006   -5.96793806854932   -5.02784845945146
C         -14.89005869242234   -6.79355154332307   -4.94464418260914
C         -16.07522776625351   -5.94793827176207   -4.70134658248275
O         -17.23225330338672   -6.29420265877759   -4.61770490664091
C         -14.82249825825680   -8.16084834436725   -5.06079549752063
C         -13.56332770829061   -8.74016275471207   -5.25189937911521
C         -12.42128708212516   -7.90764772055481   -5.31068894298822
C         -12.48920299902347   -6.52382042947868   -5.20502191441831
S         -10.97395824505655   -8.83906913212973   -5.53346316021050
C         -11.89148039228008  -10.30569504724603   -5.55436558264570
C         -13.21911846765019  -10.11430308276917   -5.39837518897806
H          -8.88889329372907   -2.65919053800848   -3.27799807359346
H          -4.40234284785922   -4.86784788196154   -2.87663710965144
H          -8.36108119778891   -7.03329820118730   -5.71224916813396
H          -9.51116068618610   -4.80964270058183   -4.92377326367116
H          -4.04872356276420    0.06574580007898   -0.34887488372326
H          -4.09864551868506    2.33244026895609    0.51618555548373
H          -7.86245353032781    7.10635716711662    2.00715840536714
H         -11.98371677078496    5.34154640670744    0.74296815595026
H         -12.17343425271739   10.04745126160818    2.61800640127761
H         -17.48519342106094    7.28916178560961    0.76670630820070
H         -17.94597064936872    9.68818581562563    1.67207588345348
H         -13.71255038906507    4.74005626024679    0.27762869319916
H         -16.71993693236039    5.05961138093260   -0.09600855765043
H         -13.44761005261013    2.91445545657624   -0.43846702022622
H         -13.86128669506815   -2.63646372785078   -2.92596499381992
H         -17.40491897999613   -3.88063765865474   -3.92354871184917
H         -15.71393113030689   -8.76610257460043   -5.00543110900899
H         -11.59062797358481   -5.93268225143790   -5.24940347537612
H         -11.36942927566814  -11.23370839950302   -5.68373102405333
H         -13.94336522767654  -10.90851761104487   -5.38506285950598
