104
 SCF done       -217.955177809104          0.000417280017
C          -1.18274987617545    5.68568440482466    5.58420710897152
C          -0.96213476255045    6.86283307437567    6.24950952487124
C           0.01817780536791    7.03365313924930    7.24901666434814
N           0.80177890707203    7.23569619135838    8.06336507193909
C          -1.68384422596905    8.05702080303304    6.03981992671369
N          -2.21949803093376    9.06609920445320    5.92514183831923
C          -0.48897568278257    4.42609107665571    5.81534957092138
C          -1.08458375736688    3.42192685519655    5.01127371026862
C          -0.64823356002048    2.11927207722693    5.01063111890065
C           0.42498538875868    1.78960590088297    5.84345414509477
C           1.01583983937162    2.79944313994755    6.64031438063422
C           0.57571832745856    4.11772270447183    6.64073361863982
S           2.32833650409952    2.16750138527936    7.58343402330287
C           2.07873643425458    0.58989462750522    6.91946326106129
C           1.06225797063170    0.53075636632788    6.03175180195029
C          -2.18614742490950    4.00363772810584    4.22842766022107
O          -2.87658460478519    3.43495245098731    3.40794628344966
C          -2.20385604209780    5.44766134271517    4.58283273310543
C          -2.93682919278430    6.38882505369867    3.92419865869918
C          -3.99041411514335    6.11284658706789    3.01514562455943
S          -4.02207614833357    7.02123106496265    1.54290455069734
C          -5.26361492150357    6.04559692095468    0.84479479148779
C          -5.65692314123357    5.03631408587595    1.74142221872749
C          -4.99370674655915    5.13235983632253    3.00809571783816
C          -5.44491838436239    4.31478332289942    4.07712744333029
C          -5.12705082615440    4.57110963583953    5.52079893037635
F          -4.84400693454625    5.85354346942554    5.79658369936144
F          -6.18306753517998    4.26528692862382    6.30031914026838
F          -4.10851964996281    3.84420450053480    6.02557406263197
C          -6.31835777635361    3.29164717136523    3.80379033822460
C          -6.78778565569537    3.04875857983711    2.51102454094520
C          -6.49917405240780    3.91421383091343    1.47865487928908
O          -6.93826309149782    3.76549795802237    0.21668772632618
C          -7.71928959609704    2.63850240644138   -0.11631647473859
C          -5.69706932466657    6.42682283177738   -0.45420296057027
C          -6.92348009840212    6.25169582274991   -0.99925800817861
C          -7.26747712236698    6.69124175373369   -2.29956821587288
N          -8.47073219449163    6.59626326757552   -2.79363735786164
C          -8.51984374287098    7.07192117236315   -4.03288873017429
C          -7.30879706805511    7.56093283650549   -4.56580968563870
S          -6.05815768758775    7.41085223089367   -3.40728880514375
N          -7.35390360869206    8.03029441750805   -5.80673167235725
C          -8.55021245260844    7.93222736221878   -6.30293399826311
S          -9.77148124272298    7.23962543352730   -5.19610793353997
C          -8.91710082914380    8.39106068740327   -7.59183602613219
S         -10.49963878067391    9.03232205302132   -7.81106904893481
C         -10.12773609953263    9.65342414729770   -9.38265682515806
C          -8.79992829319553    9.34025939196243   -9.73590241613241
C          -8.12276802748818    8.56650334981136   -8.73922709923548
C          -6.83573195088526    8.04619169632212   -9.03236927739011
C          -6.14531051284219    6.97557758544086   -8.23288942767508
F          -6.98779286224189    6.12166360702644   -7.62948236799585
F          -5.39193470535741    6.19648978030784   -9.04045223121410
F          -5.29469190445521    7.43074154789786   -7.30318441605242
C          -6.20831816914869    8.45024467137342  -10.18617829856704
C          -6.81758034180190    9.30904690381444  -11.10337229217551
C          -8.11922057887580    9.72484739370235  -10.92718659029705
O          -8.80178709156069   10.47520699776306  -11.81581419303374
C          -8.15866315694637   10.88839898989393  -13.00328281921648
C         -11.08766685946317   10.38043283088211  -10.11225763179704
C         -12.36587595253482   10.60522324356112   -9.69296627370677
C         -13.27461408919269   11.36578291324810  -10.45251717449306
C         -14.53079969981546   11.77438524563665  -10.10645131955939
C         -15.25259365684491   11.74672659676275   -8.85447057666795
C         -14.71592134473774   11.81048263349759   -7.59311618604006
C         -15.48794424856031   11.83202523410485   -6.41337027090924
N         -16.06610414303424   11.83712153473980   -5.42145624332552
C         -13.34397454274114   11.98009273884600   -7.31462828775175
N         -12.24980728676206   12.16802731567420   -7.02132887476660
C         -16.67221125344140   11.87593549327392   -9.17199966110211
C         -16.80316484693452   12.20319527588969  -10.54692156273984
C         -15.46759601617577   12.22505565601329  -11.16978221487164
O         -15.18210433807375   12.50191040381838  -12.31392798816136
C         -18.02244317928378   12.43278555075970  -11.13693721299862
C         -19.16573482024247   12.32447174139124  -10.33920891313558
C         -19.02539261245590   11.98250822084941   -8.97283846611304
C         -17.79177497971473   11.75773294134922   -8.37219051400978
S         -20.56927855577897   11.89348134078413   -8.18575913970628
C         -21.37236469336877   12.31123422395401   -9.65977574254454
C         -20.53104418764782   12.50757135454626  -10.69812742309975
H          -1.12475658649221    1.37792775313990    4.38833365619002
H           1.06111314750057    4.85174245794801    7.26214079907482
H           2.71967449034621   -0.20819643977934    7.24030168796451
H           0.76187142261729   -0.36498032006279    5.51887521741510
H          -2.64616803377347    7.42937163731203    4.00204296094752
H          -6.65411815294502    2.65061612018581    4.60438736210102
H          -7.41216326684527    2.18639116133240    2.34997235096397
H          -7.92681932277807    2.73741114879444   -1.18037291265929
H          -8.66243082808875    2.62665504262005    0.43755229899943
H          -7.17422180447307    1.70812820738771    0.06482517074315
H          -4.97185924503191    7.00161164102738   -1.01994373524737
H          -7.72363286834641    5.77780632075545   -0.45475018899128
H          -5.22221814995077    8.07612178826966  -10.41356910502178
H          -6.25803168897552    9.59609635518365  -11.97730683910327
H          -8.89991785700084   11.47146179743126  -13.54709086355511
H          -7.85411038498882   10.03178775348287  -13.61074530350655
H          -7.29028488858605   11.51685609859087  -12.78851476272424
H         -10.76194750650173   10.80475683564909  -11.04937919854775
H         -12.69476679159638   10.17183691357973   -8.75882990724418
H         -12.98147075112428   11.61141199540664  -11.46846488295144
H         -18.09141047514333   12.68871598999651  -12.18283706484240
H         -17.73527019610626   11.49411436599448   -7.32900946791160
H         -22.44254492114478   12.38451774924528   -9.65683104957990
H         -20.84984162885018   12.77288537971153  -11.68987213897384
