106
 SCF done       -212.129406992153          0.000477480114
C          -0.80988040768342    3.33325939309870   -0.64624895684465
C          -0.64593064281014    3.73517500205625   -1.96539036263247
C           0.22118521275955    3.06231030955995   -2.81652334377799
C           0.91815915129124    1.97953834645622   -2.31295606167572
C           0.75331131419627    1.57519292256972   -0.98249598581234
C          -0.11111072112897    2.24637833980002   -0.13749321394852
C           1.61086720382416    0.40045174348669   -0.69204124481591
O           1.68582824863141   -0.17530235642430    0.37308781705210
C           2.32383733894228    0.10972854284416   -1.95035226975635
C           1.89506138514556    1.09067971605719   -2.97904179682425
O           2.27974944554984    1.14140659788036   -4.12654811689730
C           3.24483575834538   -0.83455145642003   -2.28332409663347
C           3.83375876623919   -1.86670579400342   -1.52225015597721
C           3.65178512664061   -2.26243135272568   -0.20476171087555
C           4.46165749089872   -3.34056827655384    0.13477541929410
C           5.27548926875009   -3.77703988208606   -0.93302751654184
S           5.03814250292495   -2.86683685376724   -2.34649366812561
C           6.06463909477753   -4.86448993525793   -0.48487930215777
C           5.75406174435073   -5.12222560063794    0.85967317431848
C           4.73576554279989   -4.17537999081768    1.29448081595206
C           4.17094227399761   -4.10163127772555    2.53231044762675
C           4.53891606348822   -4.98570671827152    3.57030401032012
N           4.83456268534415   -5.70075200352577    4.41637347146640
C           3.18467336679726   -3.15533980637900    2.88885060019678
N           2.38285212554526   -2.40817671370068    3.22313300696654
C           6.49321163109502   -6.18023180948043    1.39173953936906
C           7.36030322878501   -6.72237586873363    0.46351338304855
S           7.26366385866369   -5.91892816236454   -1.09381616286469
C           8.27673936105123   -7.79245298196280    0.65160990360599
C           9.15919705166130   -8.29838673965507   -0.26013981568758
C           9.95815542281862   -9.34978064692303    0.24470199181041
C          10.98299549598102  -10.05533779470980   -0.41764913962480
C          11.39501169958173   -9.75387337825580   -1.77335963875612
C          11.77322248411251  -10.63410930522974   -2.74668512646124
C          12.17768790036706   -9.99383518248304   -3.93804587518883
C          12.13022542488423   -8.63081914222258   -3.89109523568334
S          11.55771853674958   -8.11274875012407   -2.34216934300234
C          12.48846370524778   -7.64873598755266   -4.94457249133605
Cl         12.68731876259350  -10.87616076939212   -5.32515718921509
C          11.61659791140524  -11.05353948243982    0.31451935423160
C          11.29597781602069  -11.36285202108011    1.66054518367960
C          10.27512799428988  -10.65189066774114    2.32525980250432
C           9.62784779981565   -9.66628239643322    1.58657929866997
S           8.36926827688622   -8.62240607000150    2.19041799237609
C           9.92141345980146  -10.89554922589653    3.70877260978371
C           8.67562245970339  -10.87312184352126    4.26848478477221
C           8.69587624036610  -11.09756858711946    5.66199420017710
C           9.94234026031757  -11.27844212324143    6.18723349642519
S          11.13076042660830  -11.18411777447218    4.93272696299126
C          10.33290164460821  -11.52854069512182    7.59704995982848
Cl          7.25662190449459  -11.13547521430662    6.60524926324758
C          12.11111911398192  -12.40171528858851    2.16780303838187
C          13.04377606293606  -12.85255208303798    1.27717733150037
S          12.93782248816374  -12.02954724815650   -0.26447933656093
C          14.03525547778590  -13.85028538370233    1.48128432095816
C          14.98761472765351  -14.27886898809992    0.57732559560563
C          15.82844544285306  -15.24834525113621    1.12518116960658
C          15.50730643594443  -15.55778825099430    2.45643422056966
S          14.17126923610751  -14.65954242805688    3.03219319086853
C          16.42428752717707  -16.52853690242561    2.92978009213237
C          17.33255085548009  -16.83337256030806    1.89269214447357
C          16.97967796620737  -16.04444808480247    0.72267101383737
C          17.58505538558801  -16.03990045365060   -0.49810106042281
C          18.69663128493995  -16.84862252728789   -0.82339692059445
N          19.59425152495744  -17.48907720713692   -1.13486626055328
C          17.13194090879300  -15.21386571902708   -1.55001860306902
N          16.76922597457746  -14.54458432019719   -2.40736124385313
C          18.29566130617473  -17.76292551781106    2.26816780838195
C          18.13678946063390  -18.17793730864155    3.58255294048905
S          16.75130557568797  -17.39358149085506    4.35417427383513
C          18.87872184924161  -19.07751796161040    4.37730530069911
C          20.00730102989943  -19.78794437714630    4.10746193968961
C          20.58306833908955  -20.65312857251833    5.16783868896890
O          20.13687616587523  -20.81554879576030    6.28219266783561
C          21.79923704284601  -21.25986744430577    4.58382782754688
C          22.70751193226227  -22.13706522552689    5.14713485668536
C          23.77942734893539  -22.55711246942739    4.37016826611400
C          23.93584167624575  -22.11046056951093    3.06460890918028
C          23.02559500693792  -21.22908517194026    2.49619927186449
C          21.95799857997596  -20.80877552966074    3.26782863761187
C          20.86004730938474  -19.87928165956841    2.90695712639163
O          20.72619697056130  -19.32426795162798    1.83661738699002
H          -1.49098917337726    3.87560792095201   -0.00720371611924
H          -1.20201749335958    4.58438401894918   -2.33414961735715
H           0.35407141722526    3.36754453539986   -3.84306187645480
H          -0.22989624704032    1.92579137931887    0.88610877347444
H           3.58708992864572   -0.77472757070760   -3.31442816323632
H           2.95630606268660   -1.76570074427420    0.44997090398444
H           6.42127872915442   -6.54815334720933    2.39939189177597
H           9.22702973335738   -7.92136904957639   -1.26412417821616
H          11.73380057354658  -11.70247100135759   -2.64445130320822
H          12.79160001792930   -8.17564354176598   -5.84570029467494
H          13.30954384073235   -7.01316920668345   -4.61375562514996
H          11.63995205605381   -7.00605024803420   -5.17671778139550
H           7.76546717022218  -10.74103370936909    3.71393707693750
H           9.44310470656098  -11.56681072546175    8.22022349360001
H          10.98616906919091  -10.73607576087291    7.96119861328942
H          10.86970680433916  -12.47251470019297    7.68611090797789
H          12.01961307523463  -12.80933901708304    3.15782728658395
H          15.05344425866009  -13.88829201864827   -0.42218717692012
H          19.08961186486261  -18.13480381998085    1.64340965222146
H          18.49391024183238  -19.22328295924814    5.38451026461810
H          22.57834053533291  -22.47886168494313    6.16260444700059
H          24.50334206039627  -23.24179569009131    4.78682973410396
H          24.77894492607982  -22.45427510902884    2.48368979679093
H          23.13771573786510  -20.87506548270456    1.48287362674579
