90
 SCF done       -177.274643367889          0.000795134317
C          -1.04983191236044    3.15538968480689   -2.05823913903858
C          -1.81522634432683    3.24359884874523   -0.90302481553017
C          -1.60579214429259    2.37730465519021    0.16209377801304
C          -0.61287073369635    1.42309755208475    0.03969068106379
C           0.15877447326669    1.33412267749977   -1.12536906326859
C          -0.05171317888512    2.19803649388097   -2.18403014239199
C           1.14787302498139    0.23524200179548   -1.00399050572911
O           1.95803696199726   -0.08577196552370   -1.84813465114834
C           0.92549865279034   -0.35152522160305    0.33037809890297
C          -0.17622178626986    0.38500424342274    0.99871513108756
O          -0.61651356625590    0.16816235445404    2.10620232428555
C           1.52527608377660   -1.37959842437734    0.98977797884764
C           2.57386096615767   -2.24275915607022    0.60928511892766
C           3.32776654053084   -2.32829957122506   -0.55266534734718
C           4.27028620792945   -3.34900591756409   -0.49281649795845
C           4.23970872524745   -4.05531319115612    0.73154451716104
S           3.05604242610260   -3.46362999272557    1.79658052352037
C           5.22718393872593   -5.06380015874885    0.69504287348048
C           5.88904980878358   -5.00696728597095   -0.54276332395932
C           5.30707317342130   -3.92646586474549   -1.33127014770137
C           5.67238674530134   -3.55607187821997   -2.59143004268296
C           6.70713052560904   -4.21856056602362   -3.28629451728618
N           7.54850480080563   -4.75815632914009   -3.84876185197125
C           5.06271201591350   -2.50092097680343   -3.30543761931843
N           4.59763187704215   -1.65528990396883   -3.92299348042474
C           6.88643946124037   -5.97146003605294   -0.66974264949122
C           6.99520445629119   -6.76381790637211    0.46129271336175
S           5.83300548264860   -6.30399479158571    1.70267091913179
C           7.88722799581889   -7.84854584023094    0.69309183572622
C           7.90726009168963   -8.53171817311194    1.88660675489635
C           8.73731480779574   -9.60779784083890    2.18355832247620
C           9.78502710400711  -10.02386351293045    1.24048345816601
C           9.93940934613789   -9.50096984658391    0.00431972326893
S           8.94633374286867   -8.26344418159053   -0.64882473521954
C          10.53061888855803  -11.02446819660497    1.92219397166561
C           9.98999478107226  -11.22796717410615    3.19349786457128
C          10.68961039163244  -12.21783110980180    3.91795891941102
C          11.72172397069659  -12.72609892019658    3.19537977746172
S          11.88530839717153  -12.03490580033594    1.61557672936939
C           8.84526661937794  -10.37324478953751    3.36329080574760
C           8.02874345381464  -10.37026320973873    4.51959348756378
C           6.74855505307190   -9.91397714281622    4.58424034624307
C           5.95827279223522   -9.85366556525053    5.75533155289420
C           6.28134911208847  -10.16666722257098    7.06967132528642
C           5.22218202045787   -9.93401317790817    7.94031443744328
C           4.07478578554379   -9.43786936854852    7.29372771304200
S           4.30733724927124   -9.26281402629235    5.60990217082789
C           3.06748761372779   -9.22419142608709    8.25849420637715
C           3.57353337084463   -9.58222062273521    9.53060864704530
C           4.93969193171158  -10.04630832884909    9.36749689588172
C           5.79435365717083  -10.50362682142944   10.32664995409018
C           5.45831732684752  -10.60228015650731   11.69462706484238
N           5.22980775762683  -10.70487512485360   12.81282662175793
C           7.10135207002256  -10.92997030983406   10.00835019460444
N           8.16358391213572  -11.27679901287429    9.74928088059388
C           2.65231175862034   -9.39129408083729   10.55399824177408
C           1.44343581228322   -8.89535695881023   10.08593027110835
S           1.46458015896524   -8.66687456137804    8.32938291697062
C           0.24495812578438   -8.55870791052572   10.74654113602811
C          -0.08879730940480   -8.57829117792769   12.06652447096717
C          -1.45625553858516   -8.16728760069225   12.46739579943381
O          -2.34728948760623   -7.81359046755063   11.72625853308048
C          -1.49971486844102   -8.27843121559915   13.94222562560179
C          -2.53622706350824   -8.01451003144554   14.81808453754497
C          -2.30903098915741   -8.20116394798109   16.17550359633968
C          -1.07653672025398   -8.63965071335834   16.64089018854850
C          -0.03355266604451   -8.90569804797842   15.76323438901676
C          -0.25731849907813   -8.72163169647952   14.41148780540411
C           0.67506531553304   -8.93153135124813   13.27620285647342
O           1.82444037596079   -9.31068940968213   13.36478931554096
H          -1.23480186005613    3.84248841693718   -2.87065305388305
H          -2.58508416108564    3.99780645550972   -0.83285198805028
H          -2.19575501817277    2.43830104662939    1.06366139609703
H           0.54864577287987    2.12067109123346   -3.07744201684966
H           1.12068122279732   -1.56298197128153    1.98301880565043
H           3.17161148101382   -1.66220031137071   -1.38394316337007
H           7.51241686276599   -6.10282314263268   -1.53375073448946
H           7.24093207900356   -8.16662459008754    2.65531727311869
H          10.70682275133971   -9.83629476364733   -0.67539983294727
H          10.45040821570706  -12.53751697718225    4.91574064803189
H          12.41979758282555  -13.48435185869715    3.49183151135649
H           8.47045646750291  -10.80970006809338    5.40399338726421
H           6.25156734682632   -9.59102660348323    3.68133696323157
H           7.24505130047379  -10.53893321922424    7.36290506966564
H           2.82133973325623   -9.58844512909544   11.59878324397483
H          -0.55758653359964   -8.22173699458998   10.09367588371867
H          -3.49066617836534   -7.67359663001173   14.44716708787670
H          -3.10245594612795   -8.00212775388297   16.88078327669779
H          -0.92801145683233   -8.77544114570067   17.70201559605431
H           0.92812600705742   -9.24705915146491   16.11449117423807
