88
 SCF done       -181.028861692732          0.000914097031
C          -0.18997454345362    3.72389702980473   -0.18362505935998
C          -0.15323082724503    4.02940522641687   -1.53781266132595
C           0.58127301177278    3.25539361052650   -2.42683374051720
C           1.27600298527010    2.17018677021724   -1.92528127952752
C           1.23855637708134    1.86239746030668   -0.55979084448067
C           0.50666369908594    2.63476594504835    0.32317722891323
C           2.06188604998225    0.66113325582363   -0.28049838952031
O           2.22264975840574    0.15082139998127    0.80813793572314
C           2.62044067435141    0.25148285456128   -1.58346151686985
C           2.13006454176775    1.18754686763825   -2.62720994247893
O           2.38948008385528    1.14282501408660   -3.80930372420984
C           3.45498218766788   -0.76011748952148   -1.94506306629575
C           4.06736733067639   -1.77609512380905   -1.18004410458596
C           3.99461699527385   -2.08179318291965    0.17137839387467
C           4.77735282754813   -3.18221735016542    0.50194811111048
C           5.46061636078286   -3.72782744319910   -0.60751502170645
S           5.13250623873610   -2.89028158332284   -2.04818354044103
C           6.23116511040781   -4.83045574742420   -0.16568649781063
C           6.03882513570800   -4.98796881266321    1.21698057728548
C           5.11659944752400   -3.96008113000074    1.68229794240069
C           4.67476085578929   -3.78426805624849    2.95942357970940
C           5.09443557401571   -4.62898075998955    4.01008381342604
N           5.44065678581881   -5.31183604066146    4.86356776482654
C           3.77162420072441   -2.76813591207438    3.34332166722457
N           3.03925123121756   -1.96258997050478    3.70060483037959
C           6.76539314592334   -6.05265410056777    1.74727964820792
C           7.50915343654473   -6.70440266615127    0.77922734003205
S           7.30573997749083   -5.99222169248239   -0.81311157988037
C           8.36630086465826   -7.81940334212480    0.95846421681222
C           9.12003630213879   -8.47012568476326   -0.00147047423993
C           9.85273134304330   -9.52623956958776    0.53941281539668
C           9.65245093346525   -9.67875512181029    1.92205829125197
S           8.56527570270651   -8.52592364313205    2.55648107720260
C          10.43727331665893  -10.76895100264907    2.37528849324874
C          11.13502931181203  -11.30629300464748    1.28011807814508
C          10.79075910452922  -10.54360059729749    0.08980872280609
C          11.25033783379272  -10.73909254726657   -1.17889074174908
C          12.16655599480833  -11.76477048373207   -1.49455343662435
N          12.91133694425171  -12.59741963123745   -1.75200065795129
C          10.84021561861277   -9.92628806052953   -2.25700904559026
N          10.50215867257415   -9.26831713069219   -3.13288870858950
C          11.94090937782151  -12.39013810063545    1.62893629934838
C          11.86051069693727  -12.67992108133523    2.97881625088735
S          10.77059410118278  -11.59462294601341    3.83138225977815
C          12.53216821685206  -13.70567679615166    3.69139286602004
C          12.43621934768762  -13.98365657991291    5.04325078755353
C          13.23485484191433  -15.06578552931140    5.40870621113785
C          13.94491820927598  -15.61617562999501    4.32759026414718
S          13.62782273765479  -14.79946492556178    2.86025498420715
C          14.72375742858951  -16.70714015519106    4.79236073402437
C          14.49739255944641  -16.83951147383318    6.18159499745172
C          13.55845432725681  -15.81704109105021    6.61120563403398
C          13.07744896931759  -15.60405639589330    7.86962033118997
C          13.46359388278603  -16.40198972765364    8.96720104768701
N          13.77213378915000  -17.04903496834710    9.86186003207030
C          12.16092298338988  -14.57007211213555    8.15448217653920
N          11.41581621523263  -13.72837409506806    8.38102413193580
C          15.21629969821180  -17.88668960092912    6.73249186806709
C          15.98793567891877  -18.55908253899629    5.78465475638912
S          15.81121484858469  -17.86372163137223    4.17427906712245
C          16.79963720934046  -19.66436850543429    6.10296459178302
C          17.59177214699546  -20.42619060031081    5.29855405196667
C          18.37120281670565  -21.56983047907098    5.82362121707897
O          18.41489909681167  -21.95282818297981    6.97086337771212
C          19.07779637323102  -22.13935718049506    4.65034228138837
C          19.93372669420356  -23.22153840515776    4.57779705086211
C          20.46784992173672  -23.55261191585581    3.33837900477784
C          20.15200828253490  -22.81776092042730    2.20397463352428
C          19.29174315627501  -21.72907255742799    2.27261726180550
C          18.75832152242344  -21.39775917465391    3.50415438920859
C          17.82592102570511  -20.30485190029277    3.86046586471170
O          17.35238372768881  -19.47528802773842    3.10327070967033
H          -0.76947859920575    4.34373535974615    0.48446771098334
H          -0.70474933375388    4.88262281855361   -1.90423086209197
H           0.61523943350951    3.48552891618600   -3.48064327057681
H           0.48505145674970    2.38798568388977    1.37355366757410
H           3.68896632790098   -0.78303282603115   -3.00736385532394
H           3.39295256590556   -1.50822266787582    0.85557702955248
H           6.76677857641157   -6.35122967901251    2.78017523688666
H           9.12438376430581   -8.17665676426182   -1.03594083162154
H          12.55897945674225  -12.94908552320172    0.94941693166823
H          11.81239918672635  -13.41828731557998    5.71218575966088
H          15.19984824779695  -18.17331695809118    7.76893374161498
H          16.78721765261103  -19.95384368716048    7.15030461328546
H          20.17379396936926  -23.78741855017302    5.46477490251667
H          21.13894567834761  -24.39463862903821    3.25553357610354
H          20.58170979573656  -23.09762798509908    1.25357987440821
H          19.04072134122998  -21.15283751685684    1.39528014716305
