92
 SCF done       -191.603492857381          0.000659245898
C           4.69785297175210    7.71738343488850   -2.23424150853031
C           4.05392359835075    8.87337459419285   -1.88810219582338
F           3.36660582410167    9.55118609911270   -2.82053167699317
C           4.08158540241100    9.38789941206110   -0.58388671840171
C           4.77651296641386    8.71220854093740    0.38002424464253
C           5.45897851777500    7.51547492564908    0.07854405779380
C           5.42092252954173    7.00906830979187   -1.25489320069838
C           6.10794896831267    5.81776301551830   -1.58300176761750
C           6.80772768141296    5.15587036425523   -0.60903265592823
C           6.82952564240750    5.65903864927092    0.72638623015706
C           6.17783858161870    6.80970056074562    1.06820976541261
C           7.62374466657367    4.76125007344717    1.58355692456074
O           7.91558282545404    4.89243366254024    2.74470887346838
C           7.95119213836151    3.59042456423231    0.70439293816046
C           7.63721054446725    3.96110640998403   -0.66720973610877
C           8.22094357508710    3.43688278245943   -1.79257127542870
C           9.26161818260577    2.49461744600585   -1.71067907933663
N          10.14997208028813    1.77893741243130   -1.57534435967141
C           7.91622219465644    3.83520669876151   -3.10562370221505
N           7.68856868718465    4.11570782887860   -4.19496320337430
C           8.31680818729341    2.40422473647831    1.23388964818817
C           8.28424901415640    1.15878195518057    0.51877336076942
C           9.15795685648326    0.09628381882545    0.47662427140823
C          10.48013240585611   -0.03673570524980    1.16428870254327
O          10.60612285451032   -0.45006911211412    2.28013788096698
O          11.50637354870228    0.34791862118149    0.40987827870328
C           8.61533357048528   -0.74227185321130   -0.54703528168253
N           7.50160003854538   -0.21798567101064   -1.01016423943483
O           7.29944930491766    0.95079609678704   -0.38121455698027
C           9.18186885185650   -1.93876035677636   -1.12132050893139
C           8.91454931610866   -2.24431668419535   -2.42673625011215
C           9.47003515360835   -3.33046561444178   -3.10771470263632
C          10.27214988513270   -4.32738493803024   -2.38194584925721
C          10.64828607240249   -4.20340631928081   -1.08758119906047
S          10.23905324876937   -2.87334878246340   -0.08895302300652
C          10.55311540778914   -5.34728672540523   -3.32982022726068
C           9.99667484395696   -5.00480971637708   -4.56409649585742
C          10.26423839164809   -5.97257759934506   -5.55677781685475
C          10.99584344418798   -7.00461489876712   -5.06107899434549
S          11.39571020801359   -6.84481521616038   -3.38355888494037
C           9.34019599975659   -3.72925385144398   -4.44738982791094
C           8.74094387513403   -3.04877633379554   -5.53972785740508
C           8.45872576506433   -1.72449070781276   -5.59056400432235
C           7.85400461285558   -1.09513561916298   -6.70904308553754
C           7.49745657047500    0.24221914064404   -6.88845587366814
C           7.66849194287412    1.33446909810984   -5.93296329271178
O           8.05073690862304    1.18223040348500   -4.79209052733630
O           7.34110991509577    2.52126113995427   -6.43497973892454
C           6.96004254306916    0.26706589974072   -8.20791445195887
N           6.97958679467296   -0.94225384859789   -8.72695430066510
O           7.51897256769936   -1.77857925241666   -7.81400399723032
C           6.40650333634722    1.38057977068625   -8.93553459829823
C           6.44145949316303    1.53653812230138  -10.27153113785409
C           5.51503131824692    2.49737834500273  -10.94805629981208
O           4.91849693184260    3.41185819666432  -10.43386276674582
C           5.44334474508489    2.02931596312275  -12.34472937679288
C           4.62129566788827    2.45473869398034  -13.34965316868829
C           4.69249572101418    1.82590414360684  -14.61198957901404
C           5.61699503157922    0.75811254142151  -14.81014576685955
C           5.67197208027653    0.12624404346881  -16.06821918457569
C           4.84236996946154    0.54943106899591  -17.06867568155548
C           3.92870697903104    1.59872498733885  -16.89461155271519
C           3.86199473173043    2.22330465348436  -15.68073114249001
F           4.89164409624610   -0.05344810083048  -18.26983206040527
C           6.46243127546863    0.34388933392822  -13.75591571225501
C           6.38127586732828    0.97376082088185  -12.54258124735722
C           7.12572730892834    0.77119194287748  -11.30573892310184
C           8.34318142070270    0.16635959096958  -11.19614044733688
C           9.13235590960571    0.18401377361962  -10.02480684471025
N           9.84304643768320    0.21580641375853   -9.12476381434584
C           8.99607409595579   -0.47662782315877  -12.26954998174928
N           9.56408715208973   -1.01081668672902  -13.11113309622217
H           4.65653516740083    7.35349358654680   -3.24887345816204
H           3.55432240428757   10.30404567613055   -0.37030641925670
H           4.81205226365905    9.08854539937584    1.39105437578514
H           6.05503141452138    5.44842329446304   -2.59513711919123
H           6.21334372130196    7.17822521450951    2.08232114983874
H           8.60477654763761    2.36995112509356    2.27724335488767
H          11.23454653603335    0.74498151536112   -0.44638905107338
H           8.22653536271997   -1.58354966187561   -2.93128469358003
H          11.26217700450588   -4.94001942989064   -0.59299915926838
H           9.93733259722450   -5.91370115157005   -6.57888413769617
H          11.34047657658065   -7.87583919425183   -5.58318027833182
H           8.53806162781290   -3.64825437838209   -6.41862934490155
H           8.70850134477643   -1.04619567248723   -4.79209092771762
H           7.46581174482599    3.22409768755752   -5.75571857640013
H           5.86710801149111    2.11879291164383   -8.35545585266836
H           3.92084854237324    3.25909085308780  -13.18142103591166
H           6.36525937667551   -0.68252402566369  -16.23842635357219
H           3.29925198170910    1.88851758749114  -17.72101779706828
H           3.16597441139468    3.03324990766205  -15.52260474793676
H           7.14565811482326   -0.47289792982886  -13.92705665354078
