118
 SCF done       -217.793992148890          0.000988544276
C           0.49903693564252   -0.78944610327110   -5.85722155813083
C          -0.65236967961520   -0.11999296691948   -6.16483832300281
F          -1.81412826616883   -0.79524049387820   -6.22910258791557
C          -0.67573551406979    1.25831452101098   -6.41917050300376
C           0.49456483996783    1.96202759637985   -6.35805960831722
C           1.71168939946424    1.32234379092649   -6.04505306696531
C           1.71464815083163   -0.08068500362781   -5.79182437027753
C           2.92404101285852   -0.74651941225842   -5.48595017746712
C           4.08973202112942   -0.03055999926756   -5.43322453886659
C           4.07811670703990    1.37491384843550   -5.67055223335272
C           2.92568940311266    2.04103712926273   -5.97415215926913
C           5.44507569532187    1.90914212206646   -5.51583642585671
O           5.82655368861764    3.04312474380631   -5.69299308938159
C           6.25950013821732    0.75961347510295   -5.03037990149901
C           5.46674604955114   -0.44668200214885   -5.18666557102985
C           5.95249400680646   -1.71803184614240   -5.33145400340627
C           7.32806176150947   -2.03071146623472   -5.36771127331749
N           8.42924402223472   -2.33276021010256   -5.48363578399272
C           5.13704507703312   -2.84482359133623   -5.56125997418123
N           4.50715167859617   -3.79052261836139   -5.72376439419556
C           7.47307831354252    0.97247479540407   -4.46960417936576
C           8.23650973104415    0.07398037401611   -3.64150643082517
C           9.62989107626095    0.11410575853674   -3.70389412480595
C          10.34472410430087   -0.78354095045536   -2.93358665568755
C           9.69203846086614   -1.68055161469773   -2.04817555299887
C           8.30378100747422   -1.66909003088849   -1.95114524259482
C           7.59177006352158   -0.81010479749536   -2.75323487487652
C          10.72257693372203   -2.44352007334218   -1.42172429515989
C          11.95189896219221   -1.97753649633949   -1.95899750213877
N          11.70086735768201   -0.97454431620553   -2.86043590040777
C          12.65973515610481   -0.25991138641684   -3.65468388641975
C          13.15550339996018   -2.53059011126858   -1.55977732187019
C          13.14547230362830   -3.56134562154201   -0.62107840841895
C          11.92249779383626   -4.01364998887028   -0.08640627545688
C          10.72446698336176   -3.46595814819326   -0.47755996241709
C          14.38818181105453   -4.16705444008675   -0.20473467032205
C          14.58057486831288   -5.32567718382607    0.51373126263498
C          15.93626431967100   -5.61243503135235    0.71425168869419
C          16.78411233716044   -4.65559771059248    0.14544295327481
S          15.91881705906664   -3.41296231104701   -0.63699589995140
C          18.13216478794116   -5.04176117247372    0.38876646316675
C          18.12963822544878   -6.24267994637804    1.10723023912324
C          16.75048194899964   -6.64201660340112    1.34208114081180
C          16.31264622835729   -7.74743366705988    2.01118008343814
C          17.20272014516483   -8.68344757806865    2.57723996320709
N          17.92398034453633   -9.44776203173724    3.03657360627807
C          14.94085867003102   -8.02422233110589    2.18578664298367
N          13.82641717172447   -8.25155099159203    2.33302309273181
C          19.41926186271454   -6.71088873295903    1.38799865599618
C          20.39902973802813   -5.87788961963998    0.89729985758279
S          19.71129711758387   -4.48451109919523    0.07127545554442
C          21.83322114936434   -6.02662336516415    0.97595346788336
C          22.66036565357478   -4.94220042794457    0.68755019159535
C          24.03118758288065   -5.11348709969152    0.75741872492849
C          24.59514403579729   -6.36539279644339    1.11660512133270
C          23.75968228349116   -7.44085679156510    1.40362999368965
C          22.39798671686005   -7.26707801346962    1.33362920083543
C          26.01162699549400   -6.19044122549421    1.09147565219387
C          26.24012039144809   -4.83547009723810    0.73208577721778
N          25.03714517509330   -4.21076706267163    0.52432668688741
C          24.86897360173534   -2.84615258557476    0.11250887461287
C          27.52164243021979   -4.32394019822824    0.64916225342358
C          28.59475843491174   -5.19455574733711    0.84010193059666
C          28.36449566901493   -6.54056624291616    1.18662737697338
C          27.09067495849135   -7.03487475727204    1.33383975994656
C          29.93877766915471   -4.68846721801636    0.71673123021550
C          31.02958575268826   -5.33809309523800    0.24785958394288
C          32.39683343753821   -4.82845754765258    0.55026078690140
O          32.68208379187794   -3.73987080290517    0.99333053430482
C          33.30296748937197   -5.95344933296844    0.24831148618514
C          34.64755459545440   -6.05366010509087    0.46306253998202
C          35.31540077996349   -7.24746520824008    0.11074454642607
C          34.57076924819224   -8.32350442421923   -0.45518229574741
C          35.24269739619752   -9.51243514414143   -0.80054501209534
C          36.58989964970485   -9.60740049088470   -0.58948809424534
C          37.33970472063795   -8.56078513247132   -0.03503917223519
C          36.70338989766404   -7.40044988888778    0.30742578614437
F          37.23387148024651  -10.74111137073571   -0.92054855480314
C          33.17952329780091   -8.19111056485895   -0.67025969230538
C          32.55587490019123   -7.02080395916959   -0.32997252958231
C          31.16839498622708   -6.59122594905787   -0.47226919016626
C          30.25025323973666   -7.13521555558742   -1.32923857811168
C          29.01948226998379   -6.52502869851968   -1.65153759213876
N          28.04655623724140   -6.03459902139368   -2.01235710558871
C          30.47282851424601   -8.31526039256799   -2.06788805991735
N          30.60349332526429   -9.28503982260493   -2.66790325595001
H           0.48027736581187   -1.85192614349850   -5.67118275989410
H          -1.61479262120211    1.73227939264449   -6.65704418347622
H           0.50192073876534    3.02443792473251   -6.54996721687864
H           2.89784488802124   -1.80716049348154   -5.29144234056270
H           2.93991308421154    3.10482347161476   -6.15844573610654
H           7.88959904531187    1.96305734640487   -4.62485352588996
H          10.11967972609959    0.79458334420901   -4.38312446674765
H           7.79760466892593   -2.33009538340362   -1.26458050486060
H           6.51432572063602   -0.77823969294820   -2.68060140357409
H          13.66340426529140   -0.59435334520386   -3.40566905630287
H          12.58991678995600    0.81356975732320   -3.46209467914569
H          12.48205917079915   -0.43891798776784   -4.71812705543159
H          14.09591133400438   -2.19035686965804   -1.96817036003367
H          11.92894176251735   -4.79955936812651    0.65102114132244
H           9.79591814165072   -3.82300498396326   -0.05987078632252
H          13.77831429231734   -5.94858122205845    0.86273167555341
H          19.62544674739985   -7.60960492479429    1.93889731698816
H          22.22488065237456   -3.98906884560430    0.42596264840819
H          24.17688490461196   -8.39847138795385    1.67403897465638
H          21.74648904999677   -8.10020983463081    1.54174098182244
H          25.68797571250814   -2.56066410704206   -0.54667565335161
H          24.85298222884663   -2.17009662339176    0.97294256363126
H          23.93341338674020   -2.74193531350161   -0.43441011287992
H          27.70811425328345   -3.29269768437092    0.39164082889917
H          29.21406130249407   -7.17905055676486    1.38116716304358
H          26.92734311910795   -8.06154250867146    1.62336088247038
H          30.11843064932856   -3.68588592111088    1.09276358662126
H          35.19616443873277   -5.23061846618070    0.89604887137930
H          34.69781469919540  -10.33704621604606   -1.23291853760491
H          38.40023558456035   -8.69378953816377    0.10863001488505
H          37.25958274701402   -6.58029046189534    0.73588194869413
H          32.63811898167125   -9.02319167558700   -1.09211297098592
